
 OpenBabel01112422463D

 51 54  0  0  1  0  0  0  0  0999 V2000
    6.3309   -0.1556  -12.1212 C   0  0  0  0  0  0  0  0  0  0  0  0
    4.8497   -0.3073  -11.8286 C   0  0  0  0  0  0  0  0  0  0  0  0
    4.1851    0.9716  -11.6814 N   0  0  0  0  0  0  0  0  0  0  0  0
    3.5758    1.6818  -12.6764 C   0  0  0  0  0  0  0  0  0  0  0  0
    3.0213    2.7861  -12.2207 N   0  0  0  0  0  0  0  0  0  0  0  0
    3.2910    2.7753  -10.8632 C   0  0  0  0  0  0  0  0  0  0  0  0
    2.9345    3.6505   -9.8223 C   0  0  0  0  0  0  0  0  0  0  0  0
    2.1452    4.7765  -10.1164 N   0  0  0  0  0  0  0  0  0  0  0  0
    1.3712    5.6132   -9.2989 C   0  0  0  0  0  0  0  0  0  0  0  0
    0.7965    6.7671   -9.8595 C   0  0  0  0  0  0  0  0  0  0  0  0
    0.0827    7.6789   -9.0746 C   0  0  0  0  0  0  0  0  0  0  0  0
   -0.0614    7.4521   -7.7088 C   0  0  0  0  0  0  0  0  0  0  0  0
    0.4979    6.3109   -7.1424 C   0  0  0  0  0  0  0  0  0  0  0  0
    0.3197    6.0180   -5.4549 Cl  0  0  0  0  0  0  0  0  0  0  0  0
    1.2096    5.4026   -7.9261 C   0  0  0  0  0  0  0  0  0  0  0  0
    3.3802    3.3416   -8.5653 N   0  0  0  0  0  0  0  0  0  0  0  0
    4.0905    2.2150   -8.3507 C   0  0  0  0  0  0  0  0  0  0  0  0
    4.4202    1.8211   -7.0703 N   0  0  0  0  0  0  0  0  0  0  0  0
    4.8070    2.7888   -6.0410 C   0  0  2  0  0  0  0  0  0  0  0  0
    6.3118    3.0926   -6.0725 C   0  0  0  0  0  0  0  0  0  0  0  0
    7.1847    1.8813   -5.7424 C   0  0  0  0  0  0  0  0  0  0  0  0
    6.7814    1.1776   -4.4490 C   0  0  0  0  0  0  0  0  0  0  0  0
    5.2771    0.9565   -4.3015 C   0  0  0  0  0  0  0  0  0  0  0  0
    4.4437    2.2040   -4.6403 C   0  0  2  0  0  0  0  0  0  0  0  0
    3.0162    1.8444   -4.5623 N   0  0  0  0  0  0  0  0  0  0  0  0
    4.4500    1.3243   -9.2904 N   0  0  0  0  0  0  0  0  0  0  0  0
    4.0239    1.6592  -10.5126 C   0  0  0  0  0  0  0  0  0  0  0  0
    6.8006   -1.1388  -12.2257 H   0  0  0  0  0  0  0  0  0  0  0  0
    6.8415    0.3818  -11.3149 H   0  0  0  0  0  0  0  0  0  0  0  0
    6.4951    0.4008  -13.0494 H   0  0  0  0  0  0  0  0  0  0  0  0
    4.6950   -0.8803  -10.9083 H   0  0  0  0  0  0  0  0  0  0  0  0
    4.3528   -0.8509  -12.6404 H   0  0  0  0  0  0  0  0  0  0  0  0
    3.5627    1.3494  -13.7065 H   0  0  0  0  0  0  0  0  0  0  0  0
    1.9408    4.8339  -11.1104 H   0  0  0  0  0  0  0  0  0  0  0  0
    0.9075    6.9731  -10.9223 H   0  0  0  0  0  0  0  0  0  0  0  0
   -0.3500    8.5674   -9.5275 H   0  0  0  0  0  0  0  0  0  0  0  0
   -0.6042    8.1636   -7.0937 H   0  0  0  0  0  0  0  0  0  0  0  0
    1.6226    4.5182   -7.4545 H   0  0  0  0  0  0  0  0  0  0  0  0
    5.0096    1.0014   -7.1487 H   0  0  0  0  0  0  0  0  0  0  0  0
    4.2523    3.7272   -6.1691 H   0  0  0  0  0  0  0  0  0  0  0  0
    6.5237    3.8789   -5.3355 H   0  0  0  0  0  0  0  0  0  0  0  0
    6.6031    3.4946   -7.0496 H   0  0  0  0  0  0  0  0  0  0  0  0
    8.2306    2.2038   -5.6571 H   0  0  0  0  0  0  0  0  0  0  0  0
    7.1535    1.1679   -6.5731 H   0  0  0  0  0  0  0  0  0  0  0  0
    7.1426    1.7611   -3.5937 H   0  0  0  0  0  0  0  0  0  0  0  0
    7.2922    0.2074   -4.3963 H   0  0  0  0  0  0  0  0  0  0  0  0
    5.0707    0.6453   -3.2686 H   0  0  0  0  0  0  0  0  0  0  0  0
    4.9794    0.1126   -4.9372 H   0  0  0  0  0  0  0  0  0  0  0  0
    4.6421    2.9679   -3.8777 H   0  0  0  0  0  0  0  0  0  0  0  0
    2.8107    1.2945   -5.4036 H   0  0  0  0  0  0  0  0  0  0  0  0
    2.4626    2.6925   -4.6956 H   0  0  0  0  0  0  0  0  0  0  0  0
  1  2  1  0  0  0  0
  1 28  1  0  0  0  0
  1 29  1  0  0  0  0
  1 30  1  0  0  0  0
  2  3  1  0  0  0  0
  2 31  1  0  0  0  0
  2 32  1  0  0  0  0
  3  4  1  0  0  0  0
  3 27  1  0  0  0  0
  4  5  2  0  0  0  0
  4 33  1  0  0  0  0
  5  6  1  0  0  0  0
  6  7  1  0  0  0  0
  6 27  2  0  0  0  0
  7  8  1  0  0  0  0
  7 16  2  0  0  0  0
  8  9  1  0  0  0  0
  8 34  1  0  0  0  0
  9 10  1  0  0  0  0
  9 15  2  0  0  0  0
 10 11  2  0  0  0  0
 10 35  1  0  0  0  0
 11 12  1  0  0  0  0
 11 36  1  0  0  0  0
 12 13  2  0  0  0  0
 12 37  1  0  0  0  0
 13 14  1  0  0  0  0
 13 15  1  0  0  0  0
 15 38  1  0  0  0  0
 16 17  1  0  0  0  0
 17 18  1  0  0  0  0
 17 26  2  0  0  0  0
 18 39  1  0  0  0  0
 19 20  1  0  0  0  0
 19 24  1  0  0  0  0
 19 18  1  0  0  0  0
 19 40  1  6  0  0  0
 20 21  1  0  0  0  0
 20 41  1  0  0  0  0
 20 42  1  0  0  0  0
 21 22  1  0  0  0  0
 21 43  1  0  0  0  0
 21 44  1  0  0  0  0
 22 23  1  0  0  0  0
 22 45  1  0  0  0  0
 22 46  1  0  0  0  0
 23 24  1  0  0  0  0
 23 47  1  0  0  0  0
 23 48  1  0  0  0  0
 24 25  1  0  0  0  0
 24 49  1  1  0  0  0
 25 50  1  0  0  0  0
 25 51  1  0  0  0  0
 26 27  1  0  0  0  0
M  END
$$$$
