
 OpenBabel01112422523D

 50 54  0  0  1  0  0  0  0  0999 V2000
    2.8934   -1.1357    0.6953 N   0  0  0  0  0  0  0  0  0  0  0  0
    2.4087    0.0861    0.0211 C   0  0  2  0  0  0  0  0  0  0  0  0
    0.8698    0.0565   -0.0267 C   0  0  0  0  0  0  0  0  0  0  0  0
    0.4272   -1.0315   -0.8515 O   0  0  0  0  0  0  0  0  0  0  0  0
   -0.9208   -1.1483   -1.0276 C   0  0  0  0  0  0  0  0  0  0  0  0
   -1.3602   -2.1831   -1.8398 C   0  0  0  0  0  0  0  0  0  0  0  0
   -2.6584   -2.4159   -2.1379 N   0  0  0  0  0  0  0  0  0  0  0  0
   -3.5627   -1.5600   -1.6012 C   0  0  0  0  0  0  0  0  0  0  0  0
   -3.2538   -0.4871   -0.7614 C   0  0  0  0  0  0  0  0  0  0  0  0
   -4.2792    0.4310   -0.2160 C   0  0  0  0  0  0  0  0  0  0  0  0
   -5.5784   -0.0147    0.0921 C   0  0  0  0  0  0  0  0  0  0  0  0
   -6.5703    0.8364    0.6029 C   0  0  0  0  0  0  0  0  0  0  0  0
   -6.2139    2.1675    0.8186 C   0  0  0  0  0  0  0  0  0  0  0  0
   -6.9168    3.2364    1.3027 N   0  0  0  0  0  0  0  0  0  0  0  0
   -6.2064    4.3794    1.3745 N   0  0  0  0  0  0  0  0  0  0  0  0
   -5.0063    4.0225    0.9089 C   0  0  0  0  0  0  0  0  0  0  0  0
   -4.9478    2.6613    0.5416 C   0  0  0  0  0  0  0  0  0  0  0  0
   -3.9772    1.7934    0.0130 C   0  0  0  0  0  0  0  0  0  0  0  0
   -1.8900   -0.3151   -0.4730 C   0  0  0  0  0  0  0  0  0  0  0  0
    2.9814    0.2816   -1.4036 C   0  0  0  0  0  0  0  0  0  0  0  0
    4.4780    0.3185   -1.4375 C   0  0  0  0  0  0  0  0  0  0  0  0
    5.2860    1.4277   -1.2842 C   0  0  0  0  0  0  0  0  0  0  0  0
    6.5912    1.0149   -1.3359 N   0  0  0  0  0  0  0  0  0  0  0  0
    6.6544   -0.3462   -1.5250 C   0  0  0  0  0  0  0  0  0  0  0  0
    7.7611   -1.1972   -1.6210 C   0  0  0  0  0  0  0  0  0  0  0  0
    7.5149   -2.5609   -1.8093 C   0  0  0  0  0  0  0  0  0  0  0  0
    6.2158   -3.0524   -1.9032 C   0  0  0  0  0  0  0  0  0  0  0  0
    5.1232   -2.1867   -1.8117 C   0  0  0  0  0  0  0  0  0  0  0  0
    5.3427   -0.8082   -1.6127 C   0  0  0  0  0  0  0  0  0  0  0  0
    3.9156   -1.1247    0.6998 H   0  0  0  0  0  0  0  0  0  0  0  0
    2.6344   -1.9411    0.1235 H   0  0  0  0  0  0  0  0  0  0  0  0
    2.7123    0.9368    0.6437 H   0  0  0  0  0  0  0  0  0  0  0  0
    0.4788   -0.0677    0.9915 H   0  0  0  0  0  0  0  0  0  0  0  0
    0.5157    1.0096   -0.4402 H   0  0  0  0  0  0  0  0  0  0  0  0
   -0.6537   -2.8745   -2.2903 H   0  0  0  0  0  0  0  0  0  0  0  0
   -4.5872   -1.7711   -1.8967 H   0  0  0  0  0  0  0  0  0  0  0  0
   -5.8465   -1.0611   -0.0511 H   0  0  0  0  0  0  0  0  0  0  0  0
   -7.5649    0.4650    0.8250 H   0  0  0  0  0  0  0  0  0  0  0  0
   -7.8845    3.2555    1.6045 H   0  0  0  0  0  0  0  0  0  0  0  0
   -4.2215    4.7666    0.8598 H   0  0  0  0  0  0  0  0  0  0  0  0
   -2.9969    2.1998   -0.2198 H   0  0  0  0  0  0  0  0  0  0  0  0
   -1.5989    0.4822    0.2013 H   0  0  0  0  0  0  0  0  0  0  0  0
    2.5956    1.2226   -1.8177 H   0  0  0  0  0  0  0  0  0  0  0  0
    2.6279   -0.5106   -2.0753 H   0  0  0  0  0  0  0  0  0  0  0  0
    5.0454    2.4711   -1.1305 H   0  0  0  0  0  0  0  0  0  0  0  0
    7.3970    1.6164   -1.2366 H   0  0  0  0  0  0  0  0  0  0  0  0
    8.7757   -0.8206   -1.5479 H   0  0  0  0  0  0  0  0  0  0  0  0
    8.3535   -3.2505   -1.8824 H   0  0  0  0  0  0  0  0  0  0  0  0
    6.0461   -4.1165   -2.0472 H   0  0  0  0  0  0  0  0  0  0  0  0
    4.1131   -2.5802   -1.8838 H   0  0  0  0  0  0  0  0  0  0  0  0
  1 30  1  0  0  0  0
  1 31  1  0  0  0  0
  2 20  1  0  0  0  0
  2  3  1  0  0  0  0
  2  1  1  0  0  0  0
  2 32  1  1  0  0  0
  3  4  1  0  0  0  0
  3 33  1  0  0  0  0
  3 34  1  0  0  0  0
  4  5  1  0  0  0  0
  5  6  1  0  0  0  0
  5 19  2  0  0  0  0
  6  7  2  0  0  0  0
  6 35  1  0  0  0  0
  7  8  1  0  0  0  0
  8  9  2  0  0  0  0
  8 36  1  0  0  0  0
  9 10  1  0  0  0  0
  9 19  1  0  0  0  0
 10 11  1  0  0  0  0
 10 18  2  0  0  0  0
 11 12  2  0  0  0  0
 11 37  1  0  0  0  0
 12 13  1  0  0  0  0
 12 38  1  0  0  0  0
 13 14  1  0  0  0  0
 13 17  2  0  0  0  0
 14 15  1  0  0  0  0
 14 39  1  0  0  0  0
 15 16  2  0  0  0  0
 16 17  1  0  0  0  0
 16 40  1  0  0  0  0
 17 18  1  0  0  0  0
 18 41  1  0  0  0  0
 19 42  1  0  0  0  0
 20 21  1  0  0  0  0
 20 43  1  0  0  0  0
 20 44  1  0  0  0  0
 21 22  2  0  0  0  0
 21 29  1  0  0  0  0
 22 23  1  0  0  0  0
 22 45  1  0  0  0  0
 23 24  1  0  0  0  0
 23 46  1  0  0  0  0
 24 25  1  0  0  0  0
 24 29  2  0  0  0  0
 25 26  2  0  0  0  0
 25 47  1  0  0  0  0
 26 27  1  0  0  0  0
 26 48  1  0  0  0  0
 27 28  2  0  0  0  0
 27 49  1  0  0  0  0
 28 29  1  0  0  0  0
 28 50  1  0  0  0  0
M  END
$$$$
