
 OpenBabel01112422533D

 45 48  0  0  1  0  0  0  0  0999 V2000
    2.8334   -1.1390    0.9453 N   0  0  0  0  0  0  0  0  0  0  0  0
    2.3308    0.0047    0.1550 C   0  0  2  0  0  0  0  0  0  0  0  0
    0.7871   -0.0465    0.0958 C   0  0  0  0  0  0  0  0  0  0  0  0
    0.3558   -1.2094   -0.6252 O   0  0  0  0  0  0  0  0  0  0  0  0
   -0.9877   -1.3346   -0.8260 C   0  0  0  0  0  0  0  0  0  0  0  0
   -1.4084   -2.4818   -1.4940 C   0  0  0  0  0  0  0  0  0  0  0  0
   -2.6961   -2.7588   -1.8062 N   0  0  0  0  0  0  0  0  0  0  0  0
   -3.6111   -1.8225   -1.4582 C   0  0  0  0  0  0  0  0  0  0  0  0
   -3.3195   -0.6297   -0.7957 C   0  0  0  0  0  0  0  0  0  0  0  0
   -4.3362    0.4134   -0.5889 C   0  0  0  0  0  0  0  0  0  0  0  0
   -5.6634    0.1349   -0.2644 C   0  0  0  0  0  0  0  0  0  0  0  0
   -6.5739    1.1983   -0.3674 C   0  0  0  0  0  0  0  0  0  0  0  0
   -7.9585    1.4070   -0.1686 C   0  0  0  0  0  0  0  0  0  0  0  0
   -9.0629    0.2885    0.4619 Cl  0  0  0  0  0  0  0  0  0  0  0  0
   -8.3568    2.6313   -0.5256 N   0  0  0  0  0  0  0  0  0  0  0  0
   -7.2174    3.2272   -0.9125 N   0  0  0  0  0  0  0  0  0  0  0  0
   -6.1056    2.4456   -0.7659 C   0  0  0  0  0  0  0  0  0  0  0  0
   -4.7632    2.7027   -0.9523 C   0  0  0  0  0  0  0  0  0  0  0  0
   -3.8946    1.6729   -0.8608 N   0  0  0  0  0  0  0  0  0  0  0  0
   -1.9705   -0.4156   -0.4652 C   0  0  0  0  0  0  0  0  0  0  0  0
    2.9877    0.0126   -1.2431 C   0  0  0  0  0  0  0  0  0  0  0  0
    2.6777    1.2467   -2.0596 C   0  0  0  0  0  0  0  0  0  0  0  0
    3.4193    2.4237   -1.8850 C   0  0  0  0  0  0  0  0  0  0  0  0
    3.1253    3.5616   -2.6385 C   0  0  0  0  0  0  0  0  0  0  0  0
    2.0816    3.5392   -3.5628 C   0  0  0  0  0  0  0  0  0  0  0  0
    1.3376    2.3721   -3.7391 C   0  0  0  0  0  0  0  0  0  0  0  0
    1.6323    1.2343   -2.9949 C   0  0  0  0  0  0  0  0  0  0  0  0
    3.8489   -1.1738    0.8999 H   0  0  0  0  0  0  0  0  0  0  0  0
    2.4933   -2.0019    0.5148 H   0  0  0  0  0  0  0  0  0  0  0  0
    2.6154    0.9179    0.6919 H   0  0  0  0  0  0  0  0  0  0  0  0
    0.3851   -0.0845    1.1175 H   0  0  0  0  0  0  0  0  0  0  0  0
    0.4204    0.8659   -0.3906 H   0  0  0  0  0  0  0  0  0  0  0  0
   -0.6883   -3.2286   -1.8181 H   0  0  0  0  0  0  0  0  0  0  0  0
   -4.6207   -2.0551   -1.7872 H   0  0  0  0  0  0  0  0  0  0  0  0
   -5.9972   -0.8620   -0.0023 H   0  0  0  0  0  0  0  0  0  0  0  0
   -7.2683    4.1708   -1.2842 H   0  0  0  0  0  0  0  0  0  0  0  0
   -4.3540    3.6750   -1.1983 H   0  0  0  0  0  0  0  0  0  0  0  0
   -1.7149    0.5099    0.0424 H   0  0  0  0  0  0  0  0  0  0  0  0
    2.7055   -0.8851   -1.8142 H   0  0  0  0  0  0  0  0  0  0  0  0
    4.0815   -0.0478   -1.1369 H   0  0  0  0  0  0  0  0  0  0  0  0
    4.2336    2.4577   -1.1646 H   0  0  0  0  0  0  0  0  0  0  0  0
    3.7102    4.4692   -2.5049 H   0  0  0  0  0  0  0  0  0  0  0  0
    1.8499    4.4274   -4.1461 H   0  0  0  0  0  0  0  0  0  0  0  0
    0.5208    2.3533   -4.4626 H   0  0  0  0  0  0  0  0  0  0  0  0
    1.0371    0.3348   -3.1433 H   0  0  0  0  0  0  0  0  0  0  0  0
  1 28  1  0  0  0  0
  1 29  1  0  0  0  0
  2 21  1  0  0  0  0
  2  3  1  0  0  0  0
  2  1  1  0  0  0  0
  2 30  1  1  0  0  0
  3  4  1  0  0  0  0
  3 31  1  0  0  0  0
  3 32  1  0  0  0  0
  4  5  1  0  0  0  0
  5  6  1  0  0  0  0
  5 20  2  0  0  0  0
  6  7  2  0  0  0  0
  6 33  1  0  0  0  0
  7  8  1  0  0  0  0
  8  9  2  0  0  0  0
  8 34  1  0  0  0  0
  9 10  1  0  0  0  0
  9 20  1  0  0  0  0
 10 11  1  0  0  0  0
 10 19  2  0  0  0  0
 11 12  2  0  0  0  0
 11 35  1  0  0  0  0
 12 13  1  0  0  0  0
 12 17  1  0  0  0  0
 13 14  1  0  0  0  0
 13 15  2  0  0  0  0
 15 16  1  0  0  0  0
 16 17  1  0  0  0  0
 16 36  1  0  0  0  0
 17 18  2  0  0  0  0
 18 19  1  0  0  0  0
 18 37  1  0  0  0  0
 20 38  1  0  0  0  0
 21 22  1  0  0  0  0
 21 39  1  0  0  0  0
 21 40  1  0  0  0  0
 22 23  1  0  0  0  0
 22 27  2  0  0  0  0
 23 24  2  0  0  0  0
 23 41  1  0  0  0  0
 24 25  1  0  0  0  0
 24 42  1  0  0  0  0
 25 26  2  0  0  0  0
 25 43  1  0  0  0  0
 26 27  1  0  0  0  0
 26 44  1  0  0  0  0
 27 45  1  0  0  0  0
M  END
$$$$
