
 OpenBabel01112422163D

 67 74  0  0  1  0  0  0  0  0999 V2000
    1.0693    0.0275   -1.7435 C   0  0  0  0  0  0  0  0  0  0  0  0
    1.9261   -0.4907   -0.7425 O   0  0  0  0  0  0  0  0  0  0  0  0
    2.0623    0.1373    0.5436 C   0  0  1  0  0  0  0  0  0  0  0  0
    2.4926    1.6235    0.5548 C   0  0  1  0  0  0  0  0  0  0  0  0
    3.7753    1.8865   -0.1755 N   0  0  0  0  0  0  0  0  0  0  0  0
    3.8101    1.7248   -1.6356 C   0  0  0  0  0  0  0  0  0  0  0  0
    4.8232    3.0532    0.4734 S   0  0  0  0  0  0  0  0  0  0  0  0
    5.3336    2.2615    1.9869 C   0  0  0  0  0  0  0  0  0  0  0  0
    5.9848    3.1432   -0.3797 O   0  0  0  0  0  0  0  0  0  0  0  0
    4.0343    4.2189    0.8020 O   0  0  0  0  0  0  0  0  0  0  0  0
    1.3423    2.5551    0.2119 C   0  0  0  0  0  0  0  0  0  0  0  0
    0.1624    2.2608    1.1399 C   0  0  2  0  0  0  0  0  0  0  0  0
    0.4246    1.2168    2.0844 O   0  0  0  0  0  0  0  0  0  0  0  0
    0.8791   -0.0606    1.5642 C   0  0  2  0  0  0  0  0  0  0  0  0
    1.3762   -0.7319    2.8565 C   0  0  0  0  0  0  0  0  0  0  0  0
   -0.2548   -0.8033    1.0150 N   0  0  0  0  0  0  0  0  0  0  0  0
   -0.3751   -2.1540    0.6254 C   0  0  0  0  0  0  0  0  0  0  0  0
    0.1801   -3.3610    1.0845 C   0  0  0  0  0  0  0  0  0  0  0  0
    0.0875   -4.4949    0.2689 C   0  0  0  0  0  0  0  0  0  0  0  0
   -0.4662   -4.4236   -1.0028 C   0  0  0  0  0  0  0  0  0  0  0  0
   -1.2325   -3.3179   -1.3610 C   0  0  0  0  0  0  0  0  0  0  0  0
   -1.3503   -2.2589   -0.4451 C   0  0  0  0  0  0  0  0  0  0  0  0
   -2.2055   -1.1785   -0.2346 C   0  0  0  0  0  0  0  0  0  0  0  0
   -3.5959   -1.1532   -0.3552 C   0  0  0  0  0  0  0  0  0  0  0  0
   -4.2082    0.0447    0.0922 C   0  0  0  0  0  0  0  0  0  0  0  0
   -3.2761    1.0471    0.4464 C   0  0  0  0  0  0  0  0  0  0  0  0
   -3.3843    2.4361    0.1803 C   0  0  0  0  0  0  0  0  0  0  0  0
   -4.4340    3.3550    0.0004 C   0  0  0  0  0  0  0  0  0  0  0  0
   -4.1714    4.6048   -0.5727 C   0  0  0  0  0  0  0  0  0  0  0  0
   -2.8996    4.9222   -1.0419 C   0  0  0  0  0  0  0  0  0  0  0  0
   -1.8062    4.1037   -0.7550 C   0  0  0  0  0  0  0  0  0  0  0  0
   -2.0295    2.9217   -0.0319 C   0  0  0  0  0  0  0  0  0  0  0  0
   -1.1079    2.0169    0.5113 N   0  0  0  0  0  0  0  0  0  0  0  0
   -1.9070    0.9329    0.6234 C   0  0  0  0  0  0  0  0  0  0  0  0
   -1.4072   -0.3295    0.5147 C   0  0  0  0  0  0  0  0  0  0  0  0
   -5.6096   -0.1578    0.1478 C   0  0  0  0  0  0  0  0  0  0  0  0
   -6.5494    0.5511    0.4922 O   0  0  0  0  0  0  0  0  0  0  0  0
   -5.7649   -1.4922   -0.2466 N   0  0  0  0  0  0  0  0  0  0  0  0
   -4.5441   -2.2409   -0.5129 C   0  0  0  0  0  0  0  0  0  0  0  0
    1.4651    0.9313   -2.1997 H   0  0  0  0  0  0  0  0  0  0  0  0
    1.0029   -0.7180   -2.5408 H   0  0  0  0  0  0  0  0  0  0  0  0
    0.0656    0.2448   -1.4025 H   0  0  0  0  0  0  0  0  0  0  0  0
    2.9175   -0.4112    0.9612 H   0  0  0  0  0  0  0  0  0  0  0  0
    2.7315    1.8323    1.6093 H   0  0  0  0  0  0  0  0  0  0  0  0
    3.6824    0.6734   -1.8993 H   0  0  0  0  0  0  0  0  0  0  0  0
    4.7796    1.9919   -2.0617 H   0  0  0  0  0  0  0  0  0  0  0  0
    3.0562    2.3463   -2.1225 H   0  0  0  0  0  0  0  0  0  0  0  0
    5.0916    1.1972    1.9440 H   0  0  0  0  0  0  0  0  0  0  0  0
    4.8139    2.7337    2.8211 H   0  0  0  0  0  0  0  0  0  0  0  0
    6.4141    2.3816    2.0893 H   0  0  0  0  0  0  0  0  0  0  0  0
    1.6424    3.5994    0.3649 H   0  0  0  0  0  0  0  0  0  0  0  0
    1.0491    2.5172   -0.8386 H   0  0  0  0  0  0  0  0  0  0  0  0
   -0.0076    3.1576    1.7504 H   0  0  0  0  0  0  0  0  0  0  0  0
    2.2815   -0.2348    3.2272 H   0  0  0  0  0  0  0  0  0  0  0  0
    1.6222   -1.7841    2.7348 H   0  0  0  0  0  0  0  0  0  0  0  0
    0.6310   -0.6427    3.6576 H   0  0  0  0  0  0  0  0  0  0  0  0
    0.6203   -3.4400    2.0659 H   0  0  0  0  0  0  0  0  0  0  0  0
    0.4946   -5.4369    0.6242 H   0  0  0  0  0  0  0  0  0  0  0  0
   -0.3582   -5.2563   -1.6925 H   0  0  0  0  0  0  0  0  0  0  0  0
   -1.7014   -3.2659   -2.3401 H   0  0  0  0  0  0  0  0  0  0  0  0
   -5.4455    3.0975    0.3069 H   0  0  0  0  0  0  0  0  0  0  0  0
   -4.9835    5.3166   -0.6997 H   0  0  0  0  0  0  0  0  0  0  0  0
   -2.7513    5.8314   -1.6203 H   0  0  0  0  0  0  0  0  0  0  0  0
   -0.8187    4.3644   -1.1280 H   0  0  0  0  0  0  0  0  0  0  0  0
   -6.6903   -1.8859   -0.3164 H   0  0  0  0  0  0  0  0  0  0  0  0
   -4.5664   -2.6812   -1.5087 H   0  0  0  0  0  0  0  0  0  0  0  0
   -4.3946   -2.9908    0.2718 H   0  0  0  0  0  0  0  0  0  0  0  0
  1  2  1  0  0  0  0
  1 40  1  0  0  0  0
  1 41  1  0  0  0  0
  1 42  1  0  0  0  0
  2  3  1  0  0  0  0
  3  4  1  0  0  0  0
  3 14  1  0  0  0  0
  3 43  1  1  0  0  0
  4  5  1  0  0  0  0
  4 11  1  0  0  0  0
  4 44  1  1  0  0  0
  5  6  1  0  0  0  0
  5  7  1  0  0  0  0
  6 45  1  0  0  0  0
  6 46  1  0  0  0  0
  6 47  1  0  0  0  0
  7  8  1  0  0  0  0
  7  9  2  0  0  0  0
  7 10  2  0  0  0  0
  8 48  1  0  0  0  0
  8 49  1  0  0  0  0
  8 50  1  0  0  0  0
 11 12  1  0  0  0  0
 11 51  1  0  0  0  0
 11 52  1  0  0  0  0
 12 13  1  0  0  0  0
 12 33  1  0  0  0  0
 12 53  1  1  0  0  0
 13 14  1  0  0  0  0
 14 15  1  1  0  0  0
 14 16  1  0  0  0  0
 15 54  1  0  0  0  0
 15 55  1  0  0  0  0
 15 56  1  0  0  0  0
 16 17  1  0  0  0  0
 16 35  1  0  0  0  0
 17 18  1  0  0  0  0
 17 22  2  0  0  0  0
 18 19  2  0  0  0  0
 18 57  1  0  0  0  0
 19 20  1  0  0  0  0
 19 58  1  0  0  0  0
 20 21  2  0  0  0  0
 20 59  1  0  0  0  0
 21 22  1  0  0  0  0
 21 60  1  0  0  0  0
 22 23  1  0  0  0  0
 23 24  1  0  0  0  0
 23 35  2  0  0  0  0
 24 25  2  0  0  0  0
 24 39  1  0  0  0  0
 25 26  1  0  0  0  0
 25 36  1  0  0  0  0
 26 27  1  0  0  0  0
 26 34  2  0  0  0  0
 27 28  1  0  0  0  0
 27 32  2  0  0  0  0
 28 29  2  0  0  0  0
 28 61  1  0  0  0  0
 29 30  1  0  0  0  0
 29 62  1  0  0  0  0
 30 31  2  0  0  0  0
 30 63  1  0  0  0  0
 31 32  1  0  0  0  0
 31 64  1  0  0  0  0
 32 33  1  0  0  0  0
 33 34  1  0  0  0  0
 34 35  1  0  0  0  0
 36 37  2  0  0  0  0
 36 38  1  0  0  0  0
 38 39  1  0  0  0  0
 38 65  1  0  0  0  0
 39 66  1  0  0  0  0
 39 67  1  0  0  0  0
M  END
$$$$
