
 OpenBabel01112422523D

 55 59  0  0  1  0  0  0  0  0999 V2000
    3.1964   -0.4330   -1.5612 N   0  0  0  0  0  0  0  0  0  0  0  0
    2.4599    0.1039   -0.4025 C   0  0  2  0  0  0  0  0  0  0  0  0
    0.9451    0.1489   -0.6801 C   0  0  0  0  0  0  0  0  0  0  0  0
    0.3801   -1.1559   -0.9135 O   0  0  0  0  0  0  0  0  0  0  0  0
   -0.9543   -1.1616   -1.2328 C   0  0  0  0  0  0  0  0  0  0  0  0
   -1.5624   -2.3710   -1.5034 C   0  0  0  0  0  0  0  0  0  0  0  0
   -2.8814   -2.5093   -1.8114 N   0  0  0  0  0  0  0  0  0  0  0  0
   -3.6404   -1.3773   -1.8401 C   0  0  0  0  0  0  0  0  0  0  0  0
   -3.1560   -0.1032   -1.5883 C   0  0  0  0  0  0  0  0  0  0  0  0
   -3.9421    1.1533   -1.5201 C   0  0  0  0  0  0  0  0  0  0  0  0
   -5.2556    1.2676   -1.0408 C   0  0  0  0  0  0  0  0  0  0  0  0
   -5.5927    2.5134   -0.4591 C   0  0  0  0  0  0  0  0  0  0  0  0
   -6.7254    3.2189    0.0805 C   0  0  0  0  0  0  0  0  0  0  0  0
   -8.0805    3.3571   -0.4504 C   0  0  0  0  0  0  0  0  0  0  0  0
   -9.2163    3.2805    0.3598 C   0  0  0  0  0  0  0  0  0  0  0  0
  -10.4483    3.7395   -0.1248 C   0  0  0  0  0  0  0  0  0  0  0  0
  -10.5437    4.3042   -1.3997 C   0  0  0  0  0  0  0  0  0  0  0  0
   -9.4093    4.4212   -2.1958 C   0  0  0  0  0  0  0  0  0  0  0  0
   -8.1878    3.9459   -1.7252 C   0  0  0  0  0  0  0  0  0  0  0  0
   -6.3133    4.2438    0.8490 N   0  0  0  0  0  0  0  0  0  0  0  0
   -5.0808    4.4740    0.4030 N   0  0  0  0  0  0  0  0  0  0  0  0
   -4.6167    3.5107   -0.4425 C   0  0  0  0  0  0  0  0  0  0  0  0
   -3.4813    3.4373   -1.2080 C   0  0  0  0  0  0  0  0  0  0  0  0
   -3.1609    2.2486   -1.7401 N   0  0  0  0  0  0  0  0  0  0  0  0
   -1.7745   -0.0387   -1.2875 C   0  0  0  0  0  0  0  0  0  0  0  0
    2.9147    1.5451   -0.0370 C   0  0  0  0  0  0  0  0  0  0  0  0
    4.3959    1.7441    0.1802 C   0  0  0  0  0  0  0  0  0  0  0  0
    5.1104    2.6397   -0.6302 C   0  0  0  0  0  0  0  0  0  0  0  0
    6.4787    2.8341   -0.4390 C   0  0  0  0  0  0  0  0  0  0  0  0
    7.1452    2.1425    0.5683 C   0  0  0  0  0  0  0  0  0  0  0  0
    6.4411    1.2655    1.3929 C   0  0  0  0  0  0  0  0  0  0  0  0
    5.0716    1.0702    1.2045 C   0  0  0  0  0  0  0  0  0  0  0  0
    4.1561   -0.6395   -1.2811 H   0  0  0  0  0  0  0  0  0  0  0  0
    3.2795    0.2915   -2.2813 H   0  0  0  0  0  0  0  0  0  0  0  0
    2.6486   -0.5770    0.4399 H   0  0  0  0  0  0  0  0  0  0  0  0
    0.4541    0.5835    0.2032 H   0  0  0  0  0  0  0  0  0  0  0  0
    0.7689    0.7914   -1.5538 H   0  0  0  0  0  0  0  0  0  0  0  0
   -0.9894   -3.2933   -1.4768 H   0  0  0  0  0  0  0  0  0  0  0  0
   -4.6841   -1.5543   -2.0832 H   0  0  0  0  0  0  0  0  0  0  0  0
   -5.9132    0.4123   -0.9416 H   0  0  0  0  0  0  0  0  0  0  0  0
   -9.1388    2.9395    1.3891 H   0  0  0  0  0  0  0  0  0  0  0  0
  -11.3293    3.7049    0.5113 H   0  0  0  0  0  0  0  0  0  0  0  0
  -11.4953    4.6875   -1.7593 H   0  0  0  0  0  0  0  0  0  0  0  0
   -9.4597    4.9223   -3.1584 H   0  0  0  0  0  0  0  0  0  0  0  0
   -7.2919    4.1305   -2.3159 H   0  0  0  0  0  0  0  0  0  0  0  0
   -4.6026    5.3099    0.7032 H   0  0  0  0  0  0  0  0  0  0  0  0
   -2.7871    4.2522   -1.3560 H   0  0  0  0  0  0  0  0  0  0  0  0
   -1.3603    0.9411   -1.0692 H   0  0  0  0  0  0  0  0  0  0  0  0
    2.3961    1.8738    0.8740 H   0  0  0  0  0  0  0  0  0  0  0  0
    2.5788    2.2302   -0.8277 H   0  0  0  0  0  0  0  0  0  0  0  0
    4.6065    3.1956   -1.4181 H   0  0  0  0  0  0  0  0  0  0  0  0
    7.0234    3.5264   -1.0757 H   0  0  0  0  0  0  0  0  0  0  0  0
    8.2118    2.2886    0.7149 H   0  0  0  0  0  0  0  0  0  0  0  0
    6.9596    0.7328    2.1859 H   0  0  0  0  0  0  0  0  0  0  0  0
    4.5383    0.3910    1.8653 H   0  0  0  0  0  0  0  0  0  0  0  0
  1 33  1  0  0  0  0
  1 34  1  0  0  0  0
  2 26  1  0  0  0  0
  2  3  1  0  0  0  0
  2  1  1  0  0  0  0
  2 35  1  1  0  0  0
  3  4  1  0  0  0  0
  3 36  1  0  0  0  0
  3 37  1  0  0  0  0
  4  5  1  0  0  0  0
  5  6  1  0  0  0  0
  5 25  2  0  0  0  0
  6  7  2  0  0  0  0
  6 38  1  0  0  0  0
  7  8  1  0  0  0  0
  8  9  2  0  0  0  0
  8 39  1  0  0  0  0
  9 10  1  0  0  0  0
  9 25  1  0  0  0  0
 10 11  1  0  0  0  0
 10 24  2  0  0  0  0
 11 12  2  0  0  0  0
 11 40  1  0  0  0  0
 12 13  1  0  0  0  0
 12 22  1  0  0  0  0
 13 14  1  0  0  0  0
 13 20  2  0  0  0  0
 14 15  1  0  0  0  0
 14 19  2  0  0  0  0
 15 16  2  0  0  0  0
 15 41  1  0  0  0  0
 16 17  1  0  0  0  0
 16 42  1  0  0  0  0
 17 18  2  0  0  0  0
 17 43  1  0  0  0  0
 18 19  1  0  0  0  0
 18 44  1  0  0  0  0
 19 45  1  0  0  0  0
 20 21  1  0  0  0  0
 21 22  1  0  0  0  0
 21 46  1  0  0  0  0
 22 23  2  0  0  0  0
 23 24  1  0  0  0  0
 23 47  1  0  0  0  0
 25 48  1  0  0  0  0
 26 27  1  0  0  0  0
 26 49  1  0  0  0  0
 26 50  1  0  0  0  0
 27 28  1  0  0  0  0
 27 32  2  0  0  0  0
 28 29  2  0  0  0  0
 28 51  1  0  0  0  0
 29 30  1  0  0  0  0
 29 52  1  0  0  0  0
 30 31  2  0  0  0  0
 30 53  1  0  0  0  0
 31 32  1  0  0  0  0
 31 54  1  0  0  0  0
 32 55  1  0  0  0  0
M  END
$$$$
