
 OpenBabel01112422423D

 39 42  0  0  0  0  0  0  0  0999 V2000
    0.9584    0.0240   -0.1603 O   0  0  0  0  0  0  0  0  0  0  0  0
    2.3267   -0.0266   -0.1291 C   0  0  0  0  0  0  0  0  0  0  0  0
    2.9785   -1.2595   -0.1237 C   0  0  0  0  0  0  0  0  0  0  0  0
    4.3890   -1.2929   -0.0688 C   0  0  0  0  0  0  0  0  0  0  0  0
    5.3427   -2.3586   -0.0400 C   0  0  0  0  0  0  0  0  0  0  0  0
    5.2224   -3.7663   -0.1048 C   0  0  0  0  0  0  0  0  0  0  0  0
    6.3767   -4.5400   -0.0227 C   0  0  0  0  0  0  0  0  0  0  0  0
    6.3326   -5.9051   -0.1297 O   0  0  0  0  0  0  0  0  0  0  0  0
    7.6188   -3.9483    0.1688 C   0  0  0  0  0  0  0  0  0  0  0  0
    8.7353   -4.7347    0.2473 O   0  0  0  0  0  0  0  0  0  0  0  0
    7.7675   -2.5676    0.2562 C   0  0  0  0  0  0  0  0  0  0  0  0
    6.6106   -1.7851    0.0970 C   0  0  0  0  0  0  0  0  0  0  0  0
    6.4418   -0.4135    0.0129 N   0  0  0  0  0  0  0  0  0  0  0  0
    7.5322    0.5559   -0.1219 C   0  0  0  0  0  0  0  0  0  0  0  0
    7.9419    1.2385    1.1633 C   0  0  0  0  0  0  0  0  0  0  0  0
    7.4618    0.8579    2.4245 C   0  0  0  0  0  0  0  0  0  0  0  0
    7.7717    1.6058    3.5611 C   0  0  0  0  0  0  0  0  0  0  0  0
    8.5922    2.7257    3.4607 C   0  0  0  0  0  0  0  0  0  0  0  0
    9.1369    3.0767    2.2287 C   0  0  0  0  0  0  0  0  0  0  0  0
    8.8196    2.3350    1.0883 C   0  0  0  0  0  0  0  0  0  0  0  0
    5.0997   -0.0925   -0.0261 C   0  0  0  0  0  0  0  0  0  0  0  0
    4.4468    1.1588   -0.0447 C   0  0  0  0  0  0  0  0  0  0  0  0
    3.0519    1.1619   -0.0902 C   0  0  0  0  0  0  0  0  0  0  0  0
    2.3694    2.3499   -0.0990 O   0  0  0  0  0  0  0  0  0  0  0  0
    0.6084   -0.8779   -0.1115 H   0  0  0  0  0  0  0  0  0  0  0  0
    2.4203   -2.1896   -0.1482 H   0  0  0  0  0  0  0  0  0  0  0  0
    4.2452   -4.2166   -0.2353 H   0  0  0  0  0  0  0  0  0  0  0  0
    5.4048   -6.1681   -0.2561 H   0  0  0  0  0  0  0  0  0  0  0  0
    8.4050   -5.6410    0.0853 H   0  0  0  0  0  0  0  0  0  0  0  0
    8.7453   -2.1290    0.4234 H   0  0  0  0  0  0  0  0  0  0  0  0
    7.1760    1.3160   -0.8296 H   0  0  0  0  0  0  0  0  0  0  0  0
    8.3841    0.0530   -0.5911 H   0  0  0  0  0  0  0  0  0  0  0  0
    6.8158   -0.0092    2.5435 H   0  0  0  0  0  0  0  0  0  0  0  0
    7.3551    1.3185    4.5232 H   0  0  0  0  0  0  0  0  0  0  0  0
    8.8066    3.3220    4.3435 H   0  0  0  0  0  0  0  0  0  0  0  0
    9.7959    3.9381    2.1534 H   0  0  0  0  0  0  0  0  0  0  0  0
    9.2477    2.6360    0.1336 H   0  0  0  0  0  0  0  0  0  0  0  0
    5.0118    2.0813   -0.0113 H   0  0  0  0  0  0  0  0  0  0  0  0
    3.0028    3.0803   -0.0395 H   0  0  0  0  0  0  0  0  0  0  0  0
  1  2  1  0  0  0  0
  1 25  1  0  0  0  0
  2  3  1  0  0  0  0
  2 23  2  0  0  0  0
  3  4  2  0  0  0  0
  3 26  1  0  0  0  0
  4  5  1  0  0  0  0
  4 21  1  0  0  0  0
  5  6  1  0  0  0  0
  5 12  2  0  0  0  0
  6  7  2  0  0  0  0
  6 27  1  0  0  0  0
  7  8  1  0  0  0  0
  7  9  1  0  0  0  0
  8 28  1  0  0  0  0
  9 10  1  0  0  0  0
  9 11  2  0  0  0  0
 10 29  1  0  0  0  0
 11 12  1  0  0  0  0
 11 30  1  0  0  0  0
 12 13  1  0  0  0  0
 13 14  1  0  0  0  0
 13 21  1  0  0  0  0
 14 15  1  0  0  0  0
 14 31  1  0  0  0  0
 14 32  1  0  0  0  0
 15 16  1  0  0  0  0
 15 20  2  0  0  0  0
 16 17  2  0  0  0  0
 16 33  1  0  0  0  0
 17 18  1  0  0  0  0
 17 34  1  0  0  0  0
 18 19  2  0  0  0  0
 18 35  1  0  0  0  0
 19 20  1  0  0  0  0
 19 36  1  0  0  0  0
 20 37  1  0  0  0  0
 21 22  2  0  0  0  0
 22 23  1  0  0  0  0
 22 38  1  0  0  0  0
 23 24  1  0  0  0  0
 24 39  1  0  0  0  0
M  END
$$$$
