
 OpenBabel01112422393D

 42 45  0  0  0  0  0  0  0  0999 V2000
    1.5874   -6.0862    0.4572 C   0  0  0  0  0  0  0  0  0  0  0  0
    0.3587   -5.5562   -0.2194 C   0  0  0  0  0  0  0  0  0  0  0  0
   -0.2878   -6.2950   -1.2139 C   0  0  0  0  0  0  0  0  0  0  0  0
   -1.4072   -5.7737   -1.8594 C   0  0  0  0  0  0  0  0  0  0  0  0
   -1.9078   -4.5233   -1.4968 C   0  0  0  0  0  0  0  0  0  0  0  0
   -1.3237   -3.7953   -0.4516 C   0  0  0  0  0  0  0  0  0  0  0  0
   -1.8570   -2.4629    0.0200 C   0  0  0  0  0  0  0  0  0  0  0  0
   -3.3101   -2.3265   -0.0748 N   0  0  0  0  0  0  0  0  0  0  0  0
   -4.2070   -2.7091    0.9134 C   0  0  0  0  0  0  0  0  0  0  0  0
   -4.0137   -3.4023    2.1284 C   0  0  0  0  0  0  0  0  0  0  0  0
   -5.1327   -3.6086    2.9316 C   0  0  0  0  0  0  0  0  0  0  0  0
   -5.0377   -4.2658    4.1337 O   0  0  0  0  0  0  0  0  0  0  0  0
   -6.3888   -3.1578    2.5554 C   0  0  0  0  0  0  0  0  0  0  0  0
   -7.4650   -3.3832    3.3690 O   0  0  0  0  0  0  0  0  0  0  0  0
   -6.5820   -2.4780    1.3544 C   0  0  0  0  0  0  0  0  0  0  0  0
   -5.4676   -2.2486    0.5190 C   0  0  0  0  0  0  0  0  0  0  0  0
   -5.3106   -1.5767   -0.7360 C   0  0  0  0  0  0  0  0  0  0  0  0
   -6.2027   -0.8813   -1.5877 C   0  0  0  0  0  0  0  0  0  0  0  0
   -5.7340   -0.2891   -2.7676 C   0  0  0  0  0  0  0  0  0  0  0  0
   -4.3981   -0.4143   -3.1114 C   0  0  0  0  0  0  0  0  0  0  0  0
   -3.8885    0.1570   -4.2477 O   0  0  0  0  0  0  0  0  0  0  0  0
   -3.5026   -1.1108   -2.2986 C   0  0  0  0  0  0  0  0  0  0  0  0
   -2.1902   -1.2084   -2.6915 O   0  0  0  0  0  0  0  0  0  0  0  0
   -3.9645   -1.6666   -1.0981 C   0  0  0  0  0  0  0  0  0  0  0  0
   -0.1615   -4.3081    0.1504 C   0  0  0  0  0  0  0  0  0  0  0  0
    1.8685   -7.0685    0.0641 H   0  0  0  0  0  0  0  0  0  0  0  0
    1.4074   -6.1919    1.5314 H   0  0  0  0  0  0  0  0  0  0  0  0
    2.4308   -5.4066    0.2969 H   0  0  0  0  0  0  0  0  0  0  0  0
    0.0791   -7.2772   -1.4993 H   0  0  0  0  0  0  0  0  0  0  0  0
   -1.8966   -6.3437   -2.6449 H   0  0  0  0  0  0  0  0  0  0  0  0
   -2.7677   -4.1334   -2.0379 H   0  0  0  0  0  0  0  0  0  0  0  0
   -1.3795   -1.6369   -0.5141 H   0  0  0  0  0  0  0  0  0  0  0  0
   -1.6078   -2.3159    1.0772 H   0  0  0  0  0  0  0  0  0  0  0  0
   -3.0306   -3.7532    2.4170 H   0  0  0  0  0  0  0  0  0  0  0  0
   -4.1128   -4.5302    4.2584 H   0  0  0  0  0  0  0  0  0  0  0  0
   -7.0894   -3.8688    4.1310 H   0  0  0  0  0  0  0  0  0  0  0  0
   -7.5705   -2.1309    1.0788 H   0  0  0  0  0  0  0  0  0  0  0  0
   -7.2493   -0.7866   -1.3120 H   0  0  0  0  0  0  0  0  0  0  0  0
   -6.4283    0.2644   -3.3906 H   0  0  0  0  0  0  0  0  0  0  0  0
   -4.6070    0.6460   -4.6852 H   0  0  0  0  0  0  0  0  0  0  0  0
   -2.1452   -0.6857   -3.5168 H   0  0  0  0  0  0  0  0  0  0  0  0
    0.3440   -3.7320    0.9240 H   0  0  0  0  0  0  0  0  0  0  0  0
  1  2  1  0  0  0  0
  1 26  1  0  0  0  0
  1 27  1  0  0  0  0
  1 28  1  0  0  0  0
  2  3  1  0  0  0  0
  2 25  2  0  0  0  0
  3  4  2  0  0  0  0
  3 29  1  0  0  0  0
  4  5  1  0  0  0  0
  4 30  1  0  0  0  0
  5  6  2  0  0  0  0
  5 31  1  0  0  0  0
  6  7  1  0  0  0  0
  6 25  1  0  0  0  0
  7  8  1  0  0  0  0
  7 32  1  0  0  0  0
  7 33  1  0  0  0  0
  8  9  1  0  0  0  0
  8 24  1  0  0  0  0
  9 10  1  0  0  0  0
  9 16  2  0  0  0  0
 10 11  2  0  0  0  0
 10 34  1  0  0  0  0
 11 12  1  0  0  0  0
 11 13  1  0  0  0  0
 12 35  1  0  0  0  0
 13 14  1  0  0  0  0
 13 15  2  0  0  0  0
 14 36  1  0  0  0  0
 15 16  1  0  0  0  0
 15 37  1  0  0  0  0
 16 17  1  0  0  0  0
 17 18  1  0  0  0  0
 17 24  2  0  0  0  0
 18 19  2  0  0  0  0
 18 38  1  0  0  0  0
 19 20  1  0  0  0  0
 19 39  1  0  0  0  0
 20 21  1  0  0  0  0
 20 22  2  0  0  0  0
 21 40  1  0  0  0  0
 22 23  1  0  0  0  0
 22 24  1  0  0  0  0
 23 41  1  0  0  0  0
 25 42  1  0  0  0  0
M  END
$$$$
