
 OpenBabel01112422213D

 67 74  0  0  1  0  0  0  0  0999 V2000
    3.8044   -2.3847    2.8348 C   0  0  0  0  0  0  0  0  0  0  0  0
    2.8920   -2.2859    1.6261 C   0  0  0  0  0  0  0  0  0  0  0  0
    3.4628   -1.3595    0.6481 N   0  0  0  0  0  0  0  0  0  0  0  0
    4.5420   -1.9618   -0.1353 C   0  0  0  0  0  0  0  0  0  0  0  0
    2.4697   -0.5751   -0.1219 C   0  0  1  0  0  0  0  0  0  0  0  0
    1.1518   -1.3248   -0.4780 C   0  0  0  0  0  0  0  0  0  0  0  0
   -0.0785   -0.4392   -0.5593 C   0  0  2  0  0  0  0  0  0  0  0  0
    0.4566    0.7641   -1.1986 O   0  0  0  0  0  0  0  0  0  0  0  0
    1.1960    1.6949   -0.3165 C   0  0  2  0  0  0  0  0  0  0  0  0
    1.8684    2.6594   -1.3081 C   0  0  0  0  0  0  0  0  0  0  0  0
    2.3066    0.8907    0.4583 C   0  0  1  0  0  0  0  0  0  0  0  0
    2.1564    0.8874    1.8894 O   0  0  0  0  0  0  0  0  0  0  0  0
    2.4899    2.1474    2.4730 C   0  0  0  0  0  0  0  0  0  0  0  0
    0.1712    2.4138    0.4954 N   0  0  0  0  0  0  0  0  0  0  0  0
   -0.1448    3.8205    0.4941 C   0  0  0  0  0  0  0  0  0  0  0  0
    0.0762    4.7968    1.4918 C   0  0  0  0  0  0  0  0  0  0  0  0
   -0.6736    5.9826    1.4505 C   0  0  0  0  0  0  0  0  0  0  0  0
   -1.5366    6.2732    0.3993 C   0  0  0  0  0  0  0  0  0  0  0  0
   -1.7509    5.3591   -0.6188 C   0  0  0  0  0  0  0  0  0  0  0  0
   -1.1824    4.0782   -0.4960 C   0  0  0  0  0  0  0  0  0  0  0  0
   -1.6403    2.8224   -0.9735 C   0  0  0  0  0  0  0  0  0  0  0  0
   -2.9312    2.6734   -1.4741 C   0  0  0  0  0  0  0  0  0  0  0  0
   -3.8381    2.0559   -0.5850 C   0  0  0  0  0  0  0  0  0  0  0  0
   -3.0981    1.1025    0.1909 C   0  0  0  0  0  0  0  0  0  0  0  0
   -3.3647   -0.2634    0.0274 C   0  0  0  0  0  0  0  0  0  0  0  0
   -4.4531   -0.9968   -0.4917 C   0  0  0  0  0  0  0  0  0  0  0  0
   -4.8548   -2.0601    0.2969 C   0  0  0  0  0  0  0  0  0  0  0  0
   -4.1101   -2.3995    1.4351 C   0  0  0  0  0  0  0  0  0  0  0  0
   -2.7967   -1.9038    1.6404 C   0  0  0  0  0  0  0  0  0  0  0  0
   -2.3122   -0.9519    0.7199 C   0  0  0  0  0  0  0  0  0  0  0  0
   -1.0668   -0.2001    0.5654 N   0  0  0  0  0  0  0  0  0  0  0  0
   -1.7288    1.0108    0.4927 C   0  0  0  0  0  0  0  0  0  0  0  0
   -1.0516    2.0978    0.0708 C   0  0  0  0  0  0  0  0  0  0  0  0
   -5.1039    1.9198   -1.2286 C   0  0  0  0  0  0  0  0  0  0  0  0
   -6.2325    1.7339   -0.8462 O   0  0  0  0  0  0  0  0  0  0  0  0
   -4.7408    1.9824   -2.5852 N   0  0  0  0  0  0  0  0  0  0  0  0
   -3.3166    2.1786   -2.8154 C   0  0  0  0  0  0  0  0  0  0  0  0
    3.3679   -3.0497    3.5846 H   0  0  0  0  0  0  0  0  0  0  0  0
    4.7905   -2.7771    2.5723 H   0  0  0  0  0  0  0  0  0  0  0  0
    3.9336   -1.3955    3.2857 H   0  0  0  0  0  0  0  0  0  0  0  0
    2.7187   -3.2809    1.1922 H   0  0  0  0  0  0  0  0  0  0  0  0
    1.9218   -1.9258    1.9887 H   0  0  0  0  0  0  0  0  0  0  0  0
    5.3931   -2.2014    0.5209 H   0  0  0  0  0  0  0  0  0  0  0  0
    4.9417   -1.2708   -0.8765 H   0  0  0  0  0  0  0  0  0  0  0  0
    4.2434   -2.8848   -0.6441 H   0  0  0  0  0  0  0  0  0  0  0  0
    2.9391   -0.3748   -1.1015 H   0  0  0  0  0  0  0  0  0  0  0  0
    0.9674   -2.2776    0.0190 H   0  0  0  0  0  0  0  0  0  0  0  0
    1.3345   -1.6277   -1.5281 H   0  0  0  0  0  0  0  0  0  0  0  0
   -0.7271   -0.8874   -1.3262 H   0  0  0  0  0  0  0  0  0  0  0  0
    2.3650    3.4844   -0.7958 H   0  0  0  0  0  0  0  0  0  0  0  0
    1.1350    3.0812   -2.0085 H   0  0  0  0  0  0  0  0  0  0  0  0
    2.6025    2.1351   -1.9295 H   0  0  0  0  0  0  0  0  0  0  0  0
    3.2759    1.3718    0.2593 H   0  0  0  0  0  0  0  0  0  0  0  0
    3.3590    2.6251    2.0050 H   0  0  0  0  0  0  0  0  0  0  0  0
    2.6791    2.0243    3.5404 H   0  0  0  0  0  0  0  0  0  0  0  0
    1.6395    2.8102    2.3942 H   0  0  0  0  0  0  0  0  0  0  0  0
    0.6738    4.5992    2.3736 H   0  0  0  0  0  0  0  0  0  0  0  0
   -0.6251    6.6700    2.2926 H   0  0  0  0  0  0  0  0  0  0  0  0
   -2.1345    7.1800    0.4153 H   0  0  0  0  0  0  0  0  0  0  0  0
   -2.5155    5.5340   -1.3689 H   0  0  0  0  0  0  0  0  0  0  0  0
   -5.1192   -0.6118   -1.2371 H   0  0  0  0  0  0  0  0  0  0  0  0
   -5.8238   -2.5041    0.0915 H   0  0  0  0  0  0  0  0  0  0  0  0
   -4.5938   -3.0221    2.1768 H   0  0  0  0  0  0  0  0  0  0  0  0
   -2.2597   -2.1545    2.5513 H   0  0  0  0  0  0  0  0  0  0  0  0
   -5.3975    1.6660   -3.2701 H   0  0  0  0  0  0  0  0  0  0  0  0
   -2.8691    1.1864   -2.9797 H   0  0  0  0  0  0  0  0  0  0  0  0
   -3.1067    2.8445   -3.6541 H   0  0  0  0  0  0  0  0  0  0  0  0
  1  2  1  0  0  0  0
  1 38  1  0  0  0  0
  1 39  1  0  0  0  0
  1 40  1  0  0  0  0
  2  3  1  0  0  0  0
  2 41  1  0  0  0  0
  2 42  1  0  0  0  0
  3  4  1  0  0  0  0
  4 43  1  0  0  0  0
  4 44  1  0  0  0  0
  4 45  1  0  0  0  0
  5  6  1  0  0  0  0
  5 11  1  0  0  0  0
  5  3  1  0  0  0  0
  5 46  1  6  0  0  0
  6  7  1  0  0  0  0
  6 47  1  0  0  0  0
  6 48  1  0  0  0  0
  7  8  1  0  0  0  0
  7 31  1  0  0  0  0
  7 49  1  6  0  0  0
  8  9  1  0  0  0  0
  9 10  1  6  0  0  0
  9 11  1  0  0  0  0
  9 14  1  0  0  0  0
 10 50  1  0  0  0  0
 10 51  1  0  0  0  0
 10 52  1  0  0  0  0
 11 12  1  0  0  0  0
 11 53  1  6  0  0  0
 12 13  1  0  0  0  0
 13 54  1  0  0  0  0
 13 55  1  0  0  0  0
 13 56  1  0  0  0  0
 14 15  1  0  0  0  0
 14 33  1  0  0  0  0
 15 16  1  0  0  0  0
 15 20  2  0  0  0  0
 16 17  2  0  0  0  0
 16 57  1  0  0  0  0
 17 18  1  0  0  0  0
 17 58  1  0  0  0  0
 18 19  2  0  0  0  0
 18 59  1  0  0  0  0
 19 20  1  0  0  0  0
 19 60  1  0  0  0  0
 20 21  1  0  0  0  0
 21 22  1  0  0  0  0
 21 33  2  0  0  0  0
 22 23  2  0  0  0  0
 22 37  1  0  0  0  0
 23 24  1  0  0  0  0
 23 34  1  0  0  0  0
 24 25  1  0  0  0  0
 24 32  2  0  0  0  0
 25 26  1  0  0  0  0
 25 30  2  0  0  0  0
 26 27  2  0  0  0  0
 26 61  1  0  0  0  0
 27 28  1  0  0  0  0
 27 62  1  0  0  0  0
 28 29  2  0  0  0  0
 28 63  1  0  0  0  0
 29 30  1  0  0  0  0
 29 64  1  0  0  0  0
 30 31  1  0  0  0  0
 31 32  1  0  0  0  0
 32 33  1  0  0  0  0
 34 35  2  0  0  0  0
 34 36  1  0  0  0  0
 36 37  1  0  0  0  0
 36 65  1  0  0  0  0
 37 66  1  0  0  0  0
 37 67  1  0  0  0  0
M  END
$$$$
