
 OpenBabel01112422533D

 49 53  0  0  1  0  0  0  0  0999 V2000
    3.0053   -1.1570    0.7349 N   0  0  0  0  0  0  0  0  0  0  0  0
    2.5070    0.0823    0.1035 C   0  0  2  0  0  0  0  0  0  0  0  0
    0.9664    0.0438    0.0459 C   0  0  0  0  0  0  0  0  0  0  0  0
    0.5394   -1.0080   -0.8300 O   0  0  0  0  0  0  0  0  0  0  0  0
   -0.8064   -1.1435   -1.0034 C   0  0  0  0  0  0  0  0  0  0  0  0
   -1.2228   -2.1811   -1.8280 C   0  0  0  0  0  0  0  0  0  0  0  0
   -2.5138   -2.4486   -2.1285 N   0  0  0  0  0  0  0  0  0  0  0  0
   -3.4342   -1.6192   -1.5871 C   0  0  0  0  0  0  0  0  0  0  0  0
   -3.1484   -0.5425   -0.7411 C   0  0  0  0  0  0  0  0  0  0  0  0
   -4.1929    0.3616   -0.2511 C   0  0  0  0  0  0  0  0  0  0  0  0
   -5.4925   -0.0777    0.0045 C   0  0  0  0  0  0  0  0  0  0  0  0
   -6.4520    0.9054    0.2542 C   0  0  0  0  0  0  0  0  0  0  0  0
   -7.8414    0.9374    0.4905 C   0  0  0  0  0  0  0  0  0  0  0  0
   -8.3126    2.1820    0.6159 N   0  0  0  0  0  0  0  0  0  0  0  0
   -7.2148    2.9479    0.4709 N   0  0  0  0  0  0  0  0  0  0  0  0
   -6.0609    2.2348    0.2820 C   0  0  0  0  0  0  0  0  0  0  0  0
   -4.7452    2.6230    0.1243 C   0  0  0  0  0  0  0  0  0  0  0  0
   -3.8239    1.6697   -0.1474 N   0  0  0  0  0  0  0  0  0  0  0  0
   -1.7914   -0.3281   -0.4502 C   0  0  0  0  0  0  0  0  0  0  0  0
    3.0902    0.3235   -1.3094 C   0  0  0  0  0  0  0  0  0  0  0  0
    4.5883    0.3871   -1.3376 C   0  0  0  0  0  0  0  0  0  0  0  0
    5.3675    1.5125   -1.1569 C   0  0  0  0  0  0  0  0  0  0  0  0
    6.6828    1.1452   -1.2520 N   0  0  0  0  0  0  0  0  0  0  0  0
    6.7821   -0.2073   -1.4870 C   0  0  0  0  0  0  0  0  0  0  0  0
    7.9163   -1.0153   -1.6428 C   0  0  0  0  0  0  0  0  0  0  0  0
    7.7148   -2.3806   -1.8649 C   0  0  0  0  0  0  0  0  0  0  0  0
    6.4301   -2.9152   -1.9297 C   0  0  0  0  0  0  0  0  0  0  0  0
    5.3094   -2.0924   -1.7792 C   0  0  0  0  0  0  0  0  0  0  0  0
    5.4846   -0.7116   -1.5502 C   0  0  0  0  0  0  0  0  0  0  0  0
    4.0252   -1.1077    0.7853 H   0  0  0  0  0  0  0  0  0  0  0  0
    2.8054   -1.9358    0.1056 H   0  0  0  0  0  0  0  0  0  0  0  0
    2.7983    0.9143    0.7560 H   0  0  0  0  0  0  0  0  0  0  0  0
    0.5684   -0.1284    1.0544 H   0  0  0  0  0  0  0  0  0  0  0  0
    0.6072    1.0111   -0.3272 H   0  0  0  0  0  0  0  0  0  0  0  0
   -0.4993   -2.8442   -2.2929 H   0  0  0  0  0  0  0  0  0  0  0  0
   -4.4531   -1.8398   -1.8945 H   0  0  0  0  0  0  0  0  0  0  0  0
   -5.7672   -1.1257   -0.0377 H   0  0  0  0  0  0  0  0  0  0  0  0
   -8.5293    0.1040    0.5595 H   0  0  0  0  0  0  0  0  0  0  0  0
   -7.3283    3.9553    0.4878 H   0  0  0  0  0  0  0  0  0  0  0  0
   -4.4002    3.6482    0.1738 H   0  0  0  0  0  0  0  0  0  0  0  0
   -1.5368    0.5036    0.2000 H   0  0  0  0  0  0  0  0  0  0  0  0
    2.6938    1.2712   -1.6990 H   0  0  0  0  0  0  0  0  0  0  0  0
    2.7530   -0.4531   -2.0074 H   0  0  0  0  0  0  0  0  0  0  0  0
    5.0972    2.5427   -0.9713 H   0  0  0  0  0  0  0  0  0  0  0  0
    7.4716    1.7696   -1.1576 H   0  0  0  0  0  0  0  0  0  0  0  0
    8.9179   -0.6030   -1.5916 H   0  0  0  0  0  0  0  0  0  0  0  0
    8.5741   -3.0345   -1.9874 H   0  0  0  0  0  0  0  0  0  0  0  0
    6.2951   -3.9806   -2.0990 H   0  0  0  0  0  0  0  0  0  0  0  0
    4.3136   -2.5218   -1.8331 H   0  0  0  0  0  0  0  0  0  0  0  0
  1 30  1  0  0  0  0
  1 31  1  0  0  0  0
  2 20  1  0  0  0  0
  2  3  1  0  0  0  0
  2  1  1  0  0  0  0
  2 32  1  1  0  0  0
  3  4  1  0  0  0  0
  3 33  1  0  0  0  0
  3 34  1  0  0  0  0
  4  5  1  0  0  0  0
  5  6  1  0  0  0  0
  5 19  2  0  0  0  0
  6  7  2  0  0  0  0
  6 35  1  0  0  0  0
  7  8  1  0  0  0  0
  8  9  2  0  0  0  0
  8 36  1  0  0  0  0
  9 10  1  0  0  0  0
  9 19  1  0  0  0  0
 10 11  1  0  0  0  0
 10 18  2  0  0  0  0
 11 12  2  0  0  0  0
 11 37  1  0  0  0  0
 12 13  1  0  0  0  0
 12 16  1  0  0  0  0
 13 14  2  0  0  0  0
 13 38  1  0  0  0  0
 14 15  1  0  0  0  0
 15 16  1  0  0  0  0
 15 39  1  0  0  0  0
 16 17  2  0  0  0  0
 17 18  1  0  0  0  0
 17 40  1  0  0  0  0
 19 41  1  0  0  0  0
 20 21  1  0  0  0  0
 20 42  1  0  0  0  0
 20 43  1  0  0  0  0
 21 22  2  0  0  0  0
 21 29  1  0  0  0  0
 22 23  1  0  0  0  0
 22 44  1  0  0  0  0
 23 24  1  0  0  0  0
 23 45  1  0  0  0  0
 24 25  1  0  0  0  0
 24 29  2  0  0  0  0
 25 26  2  0  0  0  0
 25 46  1  0  0  0  0
 26 27  1  0  0  0  0
 26 47  1  0  0  0  0
 27 28  2  0  0  0  0
 27 48  1  0  0  0  0
 28 29  1  0  0  0  0
 28 49  1  0  0  0  0
M  END
$$$$
