
 OpenBabel01112422463D

 44 46  0  0  0  0  0  0  0  0999 V2000
    3.6132    0.2337   -0.9897 C   0  0  0  0  0  0  0  0  0  0  0  0
    2.5200    0.0721    0.0495 C   0  0  0  0  0  0  0  0  0  0  0  0
    2.9349   -0.7657    1.1515 N   0  0  0  0  0  0  0  0  0  0  0  0
    2.8126   -2.1265    1.1966 C   0  0  0  0  0  0  0  0  0  0  0  0
    3.2159   -2.6096    2.3495 N   0  0  0  0  0  0  0  0  0  0  0  0
    3.6070   -1.5085    3.0851 C   0  0  0  0  0  0  0  0  0  0  0  0
    4.0840   -1.3583    4.3977 C   0  0  0  0  0  0  0  0  0  0  0  0
    4.2666   -2.4312    5.2785 N   0  0  0  0  0  0  0  0  0  0  0  0
    4.7445   -3.7206    4.9944 C   0  0  0  0  0  0  0  0  0  0  0  0
    4.3131   -4.8016    5.7674 C   0  0  0  0  0  0  0  0  0  0  0  0
    4.7074   -6.1064    5.4566 C   0  0  0  0  0  0  0  0  0  0  0  0
    5.5565   -6.3467    4.3763 C   0  0  0  0  0  0  0  0  0  0  0  0
    6.0182   -5.2826    3.5926 C   0  0  0  0  0  0  0  0  0  0  0  0
    6.9467   -5.5016    2.4251 C   0  0  0  0  0  0  0  0  0  0  0  0
    7.3191   -6.8036    2.2633 F   0  0  0  0  0  0  0  0  0  0  0  0
    6.4112   -5.1170    1.2366 F   0  0  0  0  0  0  0  0  0  0  0  0
    8.1127   -4.8016    2.5529 F   0  0  0  0  0  0  0  0  0  0  0  0
    5.5943   -3.9803    3.9082 C   0  0  0  0  0  0  0  0  0  0  0  0
    4.3321   -0.0949    4.8398 N   0  0  0  0  0  0  0  0  0  0  0  0
    4.1884    0.9572    4.0000 C   0  0  0  0  0  0  0  0  0  0  0  0
    4.5478    2.2242    4.4269 N   0  0  0  0  0  0  0  0  0  0  0  0
    5.6200    2.3220    5.4104 C   0  0  0  0  0  0  0  0  0  0  0  0
    6.9782    1.8105    4.8858 C   0  0  0  0  0  0  0  0  0  0  0  0
    7.4132    2.4956    3.6611 N   0  0  0  0  0  0  0  0  0  0  0  0
    3.7505    0.8994    2.7307 N   0  0  0  0  0  0  0  0  0  0  0  0
    3.4567   -0.3499    2.3453 C   0  0  0  0  0  0  0  0  0  0  0  0
    3.2570    0.8480   -1.8214 H   0  0  0  0  0  0  0  0  0  0  0  0
    3.9240   -0.7373   -1.3910 H   0  0  0  0  0  0  0  0  0  0  0  0
    4.4974    0.7149   -0.5589 H   0  0  0  0  0  0  0  0  0  0  0  0
    1.6333   -0.3917   -0.3997 H   0  0  0  0  0  0  0  0  0  0  0  0
    2.2154    1.0437    0.4512 H   0  0  0  0  0  0  0  0  0  0  0  0
    2.4217   -2.7129    0.3754 H   0  0  0  0  0  0  0  0  0  0  0  0
    4.2966   -2.1444    6.2466 H   0  0  0  0  0  0  0  0  0  0  0  0
    3.6273   -4.6385    6.5951 H   0  0  0  0  0  0  0  0  0  0  0  0
    4.3367   -6.9383    6.0506 H   0  0  0  0  0  0  0  0  0  0  0  0
    5.8520   -7.3684    4.1452 H   0  0  0  0  0  0  0  0  0  0  0  0
    5.9471   -3.1562    3.2901 H   0  0  0  0  0  0  0  0  0  0  0  0
    4.6715    2.8108    3.6100 H   0  0  0  0  0  0  0  0  0  0  0  0
    5.3491    1.7988    6.3352 H   0  0  0  0  0  0  0  0  0  0  0  0
    5.7253    3.3810    5.6794 H   0  0  0  0  0  0  0  0  0  0  0  0
    6.9354    0.7329    4.6877 H   0  0  0  0  0  0  0  0  0  0  0  0
    7.7356    1.9625    5.6622 H   0  0  0  0  0  0  0  0  0  0  0  0
    6.7467    2.2879    2.9186 H   0  0  0  0  0  0  0  0  0  0  0  0
    8.2975    2.0857    3.3575 H   0  0  0  0  0  0  0  0  0  0  0  0
  1  2  1  0  0  0  0
  1 27  1  0  0  0  0
  1 28  1  0  0  0  0
  1 29  1  0  0  0  0
  2  3  1  0  0  0  0
  2 30  1  0  0  0  0
  2 31  1  0  0  0  0
  3  4  1  0  0  0  0
  3 26  1  0  0  0  0
  4  5  2  0  0  0  0
  4 32  1  0  0  0  0
  5  6  1  0  0  0  0
  6  7  1  0  0  0  0
  6 26  2  0  0  0  0
  7  8  1  0  0  0  0
  7 19  2  0  0  0  0
  8  9  1  0  0  0  0
  8 33  1  0  0  0  0
  9 10  1  0  0  0  0
  9 18  2  0  0  0  0
 10 11  2  0  0  0  0
 10 34  1  0  0  0  0
 11 12  1  0  0  0  0
 11 35  1  0  0  0  0
 12 13  2  0  0  0  0
 12 36  1  0  0  0  0
 13 14  1  0  0  0  0
 13 18  1  0  0  0  0
 14 15  1  0  0  0  0
 14 16  1  0  0  0  0
 14 17  1  0  0  0  0
 18 37  1  0  0  0  0
 19 20  1  0  0  0  0
 20 21  1  0  0  0  0
 20 25  2  0  0  0  0
 21 22  1  0  0  0  0
 21 38  1  0  0  0  0
 22 23  1  0  0  0  0
 22 39  1  0  0  0  0
 22 40  1  0  0  0  0
 23 24  1  0  0  0  0
 23 41  1  0  0  0  0
 23 42  1  0  0  0  0
 24 43  1  0  0  0  0
 24 44  1  0  0  0  0
 25 26  1  0  0  0  0
M  END
$$$$
