
 OpenBabel01112422563D

 34 37  0  0  0  0  0  0  0  0999 V2000
    1.2170    0.2013   -0.2564 O   0  0  0  0  0  0  0  0  0  0  0  0
    2.1657   -0.3321   -0.8145 C   0  0  0  0  0  0  0  0  0  0  0  0
    2.4214   -0.1392   -2.1274 O   0  0  0  0  0  0  0  0  0  0  0  0
    3.1036   -1.2857   -0.1258 C   0  0  0  0  0  0  0  0  0  0  0  0
    4.5708   -0.9651   -0.2076 C   0  0  0  0  0  0  0  0  0  0  0  0
    5.5956   -1.9603   -0.1538 C   0  0  0  0  0  0  0  0  0  0  0  0
    5.5323   -3.3731   -0.0880 C   0  0  0  0  0  0  0  0  0  0  0  0
    6.6969   -4.1333   -0.0390 C   0  0  0  0  0  0  0  0  0  0  0  0
    7.9272   -3.5036   -0.0436 C   0  0  0  0  0  0  0  0  0  0  0  0
    8.0200   -2.1077   -0.0941 C   0  0  0  0  0  0  0  0  0  0  0  0
    6.8479   -1.3211   -0.1475 C   0  0  0  0  0  0  0  0  0  0  0  0
    6.6023    0.0581   -0.1804 N   0  0  0  0  0  0  0  0  0  0  0  0
    5.2224    0.2517   -0.2521 C   0  0  0  0  0  0  0  0  0  0  0  0
    4.6773    1.5160   -0.3223 N   0  0  0  0  0  0  0  0  0  0  0  0
    5.4550    2.6476   -0.2795 C   0  0  0  0  0  0  0  0  0  0  0  0
    4.9550    3.7640   -0.3356 O   0  0  0  0  0  0  0  0  0  0  0  0
    6.9206    2.4632   -0.1647 C   0  0  0  0  0  0  0  0  0  0  0  0
    7.7296    3.6091   -0.0926 C   0  0  0  0  0  0  0  0  0  0  0  0
    9.1137    3.4898   -0.0049 C   0  0  0  0  0  0  0  0  0  0  0  0
    9.6886    2.2229    0.0146 C   0  0  0  0  0  0  0  0  0  0  0  0
    8.8849    1.0781   -0.0447 C   0  0  0  0  0  0  0  0  0  0  0  0
    7.4934    1.1775   -0.1338 C   0  0  0  0  0  0  0  0  0  0  0  0
    3.2085   -0.6205   -2.4493 H   0  0  0  0  0  0  0  0  0  0  0  0
    2.9006   -2.2760   -0.5509 H   0  0  0  0  0  0  0  0  0  0  0  0
    2.8234   -1.3327    0.9333 H   0  0  0  0  0  0  0  0  0  0  0  0
    4.5723   -3.8825   -0.0726 H   0  0  0  0  0  0  0  0  0  0  0  0
    6.6373   -5.2174    0.0067 H   0  0  0  0  0  0  0  0  0  0  0  0
    8.8373   -4.0992   -0.0015 H   0  0  0  0  0  0  0  0  0  0  0  0
    9.0159   -1.6919   -0.0867 H   0  0  0  0  0  0  0  0  0  0  0  0
    3.6788    1.6776   -0.3933 H   0  0  0  0  0  0  0  0  0  0  0  0
    7.2796    4.6007   -0.1036 H   0  0  0  0  0  0  0  0  0  0  0  0
    9.7386    4.3784    0.0472 H   0  0  0  0  0  0  0  0  0  0  0  0
   10.7700    2.1250    0.0787 H   0  0  0  0  0  0  0  0  0  0  0  0
    9.4140    0.1413   -0.0147 H   0  0  0  0  0  0  0  0  0  0  0  0
  1  2  2  0  0  0  0
  2  3  1  0  0  0  0
  2  4  1  0  0  0  0
  3 23  1  0  0  0  0
  4  5  1  0  0  0  0
  4 24  1  0  0  0  0
  4 25  1  0  0  0  0
  5  6  1  0  0  0  0
  5 13  2  0  0  0  0
  6  7  1  0  0  0  0
  6 11  2  0  0  0  0
  7  8  2  0  0  0  0
  7 26  1  0  0  0  0
  8  9  1  0  0  0  0
  8 27  1  0  0  0  0
  9 10  2  0  0  0  0
  9 28  1  0  0  0  0
 10 11  1  0  0  0  0
 10 29  1  0  0  0  0
 11 12  1  0  0  0  0
 12 13  1  0  0  0  0
 12 22  1  0  0  0  0
 13 14  1  0  0  0  0
 14 15  1  0  0  0  0
 14 30  1  0  0  0  0
 15 16  2  0  0  0  0
 15 17  1  0  0  0  0
 17 18  1  0  0  0  0
 17 22  2  0  0  0  0
 18 19  2  0  0  0  0
 18 31  1  0  0  0  0
 19 20  1  0  0  0  0
 19 32  1  0  0  0  0
 20 21  2  0  0  0  0
 20 33  1  0  0  0  0
 21 22  1  0  0  0  0
 21 34  1  0  0  0  0
M  END
$$$$
