
 OpenBabel01112422243D

 62 69  0  0  1  0  0  0  0  0999 V2000
    3.4202   -4.3730    1.3561 C   0  0  0  0  0  0  0  0  0  0  0  0
    2.5723   -3.2154    1.1322 N   0  0  0  0  0  0  0  0  0  0  0  0
    2.7530   -2.5284   -0.1670 C   0  0  1  0  0  0  0  0  0  0  0  0
    2.3934   -3.4458   -1.3414 C   0  0  0  0  0  0  0  0  0  0  0  0
    1.1974   -2.9995   -2.1596 C   0  0  2  0  0  0  0  0  0  0  0  0
    1.4069   -1.6637   -2.5816 O   0  0  0  0  0  0  0  0  0  0  0  0
    1.4323   -0.6580   -1.5541 C   0  0  2  0  0  0  0  0  0  0  0  0
    2.3409    0.4098   -2.1954 C   0  0  0  0  0  0  0  0  0  0  0  0
    2.1028   -1.0879   -0.1730 C   0  0  1  0  0  0  0  0  0  0  0  0
    1.2644   -0.9559    1.0086 O   0  0  0  0  0  0  0  0  0  0  0  0
    1.0830    0.3554    1.5231 C   0  0  0  0  0  0  0  0  0  0  0  0
    0.0549   -0.2409   -1.4310 N   0  0  0  0  0  0  0  0  0  0  0  0
   -0.6104    1.0044   -1.3455 C   0  0  0  0  0  0  0  0  0  0  0  0
   -0.1854    2.3436   -1.4573 C   0  0  0  0  0  0  0  0  0  0  0  0
   -1.1641    3.3393   -1.6012 C   0  0  0  0  0  0  0  0  0  0  0  0
   -2.5117    3.0181   -1.7084 C   0  0  0  0  0  0  0  0  0  0  0  0
   -2.9411    1.7510   -1.3425 C   0  0  0  0  0  0  0  0  0  0  0  0
   -1.9887    0.7994   -0.9582 C   0  0  0  0  0  0  0  0  0  0  0  0
   -2.0879   -0.4949   -0.4373 C   0  0  0  0  0  0  0  0  0  0  0  0
   -2.6713   -0.8981    0.7861 C   0  0  0  0  0  0  0  0  0  0  0  0
   -2.6305   -2.2927    1.0106 C   0  0  0  0  0  0  0  0  0  0  0  0
   -1.7780   -2.9494    0.1076 C   0  0  0  0  0  0  0  0  0  0  0  0
   -1.3940   -4.3016    0.0914 C   0  0  0  0  0  0  0  0  0  0  0  0
   -1.6166   -5.4269    0.9050 C   0  0  0  0  0  0  0  0  0  0  0  0
   -1.3013   -6.6964    0.4194 C   0  0  0  0  0  0  0  0  0  0  0  0
   -0.8154   -6.8601   -0.8742 C   0  0  0  0  0  0  0  0  0  0  0  0
   -0.4244   -5.7616   -1.6439 C   0  0  0  0  0  0  0  0  0  0  0  0
   -0.6014   -4.4813   -1.0992 C   0  0  0  0  0  0  0  0  0  0  0  0
   -0.0774   -3.2347   -1.5201 N   0  0  0  0  0  0  0  0  0  0  0  0
   -0.8872   -2.4151   -0.8343 C   0  0  0  0  0  0  0  0  0  0  0  0
   -0.9428   -1.0544   -0.9709 C   0  0  0  0  0  0  0  0  0  0  0  0
   -3.2161   -2.5898    2.2736 C   0  0  0  0  0  0  0  0  0  0  0  0
   -3.5394   -3.6230    2.8426 O   0  0  0  0  0  0  0  0  0  0  0  0
   -3.3632   -1.3266    2.8582 N   0  0  0  0  0  0  0  0  0  0  0  0
   -2.7937   -0.2404    2.0933 C   0  0  2  0  0  0  0  0  0  0  0  0
   -3.6283    0.8680    2.1777 O   0  0  0  0  0  0  0  0  0  0  0  0
    3.1359   -5.2143    0.7187 H   0  0  0  0  0  0  0  0  0  0  0  0
    3.2968   -4.7187    2.3879 H   0  0  0  0  0  0  0  0  0  0  0  0
    4.4796   -4.1482    1.2031 H   0  0  0  0  0  0  0  0  0  0  0  0
    2.6812   -2.5349    1.8846 H   0  0  0  0  0  0  0  0  0  0  0  0
    3.8342   -2.3410   -0.2596 H   0  0  0  0  0  0  0  0  0  0  0  0
    2.2442   -4.4826   -1.0271 H   0  0  0  0  0  0  0  0  0  0  0  0
    3.2678   -3.4711   -2.0060 H   0  0  0  0  0  0  0  0  0  0  0  0
    1.1710   -3.6010   -3.0762 H   0  0  0  0  0  0  0  0  0  0  0  0
    1.8720    0.8685   -3.0724 H   0  0  0  0  0  0  0  0  0  0  0  0
    2.6193    1.2024   -1.4939 H   0  0  0  0  0  0  0  0  0  0  0  0
    3.2691   -0.0540   -2.5546 H   0  0  0  0  0  0  0  0  0  0  0  0
    2.9449   -0.4103    0.0270 H   0  0  0  0  0  0  0  0  0  0  0  0
    0.7136    0.2677    2.5495 H   0  0  0  0  0  0  0  0  0  0  0  0
    2.0101    0.9322    1.5306 H   0  0  0  0  0  0  0  0  0  0  0  0
    0.3168    0.9002    0.9796 H   0  0  0  0  0  0  0  0  0  0  0  0
    0.8594    2.6206   -1.4464 H   0  0  0  0  0  0  0  0  0  0  0  0
   -0.8649    4.3799   -1.6919 H   0  0  0  0  0  0  0  0  0  0  0  0
   -3.2358    3.7554   -2.0417 H   0  0  0  0  0  0  0  0  0  0  0  0
   -3.9882    1.4675   -1.4309 H   0  0  0  0  0  0  0  0  0  0  0  0
   -2.0378   -5.3188    1.9002 H   0  0  0  0  0  0  0  0  0  0  0  0
   -1.4845   -7.5632    1.0479 H   0  0  0  0  0  0  0  0  0  0  0  0
   -0.7052   -7.8622   -1.2795 H   0  0  0  0  0  0  0  0  0  0  0  0
   -0.0103   -5.9003   -2.6369 H   0  0  0  0  0  0  0  0  0  0  0  0
   -3.4315   -1.3038    3.8658 H   0  0  0  0  0  0  0  0  0  0  0  0
   -1.8035   -0.0234    2.5149 H   0  0  0  0  0  0  0  0  0  0  0  0
   -4.5066    0.5344    1.9642 H   0  0  0  0  0  0  0  0  0  0  0  0
  1  2  1  0  0  0  0
  1 37  1  0  0  0  0
  1 38  1  0  0  0  0
  1 39  1  0  0  0  0
  2  3  1  0  0  0  0
  2 40  1  0  0  0  0
  3  4  1  0  0  0  0
  3  9  1  0  0  0  0
  3 41  1  6  0  0  0
  4  5  1  0  0  0  0
  4 42  1  0  0  0  0
  4 43  1  0  0  0  0
  5  6  1  0  0  0  0
  5 29  1  0  0  0  0
  5 44  1  6  0  0  0
  6  7  1  0  0  0  0
  7  8  1  6  0  0  0
  7  9  1  0  0  0  0
  7 12  1  0  0  0  0
  8 45  1  0  0  0  0
  8 46  1  0  0  0  0
  8 47  1  0  0  0  0
  9 10  1  0  0  0  0
  9 48  1  1  0  0  0
 10 11  1  0  0  0  0
 11 49  1  0  0  0  0
 11 50  1  0  0  0  0
 11 51  1  0  0  0  0
 12 13  1  0  0  0  0
 12 31  1  0  0  0  0
 13 14  1  0  0  0  0
 13 18  2  0  0  0  0
 14 15  2  0  0  0  0
 14 52  1  0  0  0  0
 15 16  1  0  0  0  0
 15 53  1  0  0  0  0
 16 17  2  0  0  0  0
 16 54  1  0  0  0  0
 17 18  1  0  0  0  0
 17 55  1  0  0  0  0
 18 19  1  0  0  0  0
 19 20  1  0  0  0  0
 19 31  2  0  0  0  0
 20 21  2  0  0  0  0
 20 35  1  0  0  0  0
 21 22  1  0  0  0  0
 21 32  1  0  0  0  0
 22 23  1  0  0  0  0
 22 30  2  0  0  0  0
 23 24  1  0  0  0  0
 23 28  2  0  0  0  0
 24 25  2  0  0  0  0
 24 56  1  0  0  0  0
 25 26  1  0  0  0  0
 25 57  1  0  0  0  0
 26 27  2  0  0  0  0
 26 58  1  0  0  0  0
 27 28  1  0  0  0  0
 27 59  1  0  0  0  0
 28 29  1  0  0  0  0
 29 30  1  0  0  0  0
 30 31  1  0  0  0  0
 32 33  2  0  0  0  0
 32 34  1  0  0  0  0
 34 35  1  0  0  0  0
 34 60  1  0  0  0  0
 35 36  1  0  0  0  0
 35 61  1  1  0  0  0
 36 62  1  0  0  0  0
M  END
$$$$
