
 OpenBabel01112422363D

 62 67  0  0  0  0  0  0  0  0999 V2000
    3.8237    2.9029    2.3992 C   0  0  0  0  0  0  0  0  0  0  0  0
    3.7346    1.3815    2.4259 C   0  0  0  0  0  0  0  0  0  0  0  0
    4.1853    0.7586    3.6815 N   0  0  0  0  0  0  0  0  0  0  0  0
    3.5005    1.2750    4.8845 C   0  0  0  0  0  0  0  0  0  0  0  0
    2.0060    0.9765    5.0014 C   0  0  0  0  0  0  0  0  0  0  0  0
    4.0809   -0.7147    3.6156 C   0  0  0  0  0  0  0  0  0  0  0  0
    4.9490   -1.3838    2.5342 C   0  0  0  0  0  0  0  0  0  0  0  0
    6.4534   -1.1421    2.6957 C   0  0  0  0  0  0  0  0  0  0  0  0
    6.9870   -1.6933    3.9981 C   0  0  0  0  0  0  0  0  0  0  0  0
    6.9347   -3.0734    4.2498 C   0  0  0  0  0  0  0  0  0  0  0  0
    7.3190   -3.6017    5.4757 C   0  0  0  0  0  0  0  0  0  0  0  0
    7.8096   -2.7724    6.4927 C   0  0  0  0  0  0  0  0  0  0  0  0
    7.9194   -1.3832    6.2822 C   0  0  0  0  0  0  0  0  0  0  0  0
    7.4846   -0.8871    5.0419 C   0  0  0  0  0  0  0  0  0  0  0  0
    7.6021    0.4900    5.0814 N   0  0  0  0  0  0  0  0  0  0  0  0
    8.1457    0.9274    6.2699 C   0  0  0  0  0  0  0  0  0  0  0  0
    8.4376    2.2059    6.7684 C   0  0  0  0  0  0  0  0  0  0  0  0
    8.0689    3.2569    5.9291 C   0  0  0  0  0  0  0  0  0  0  0  0
    8.2068    4.5511    6.3684 C   0  0  0  0  0  0  0  0  0  0  0  0
    8.8968    4.8002    7.5602 C   0  0  0  0  0  0  0  0  0  0  0  0
    9.2233    6.0449    8.1384 C   0  0  0  0  0  0  0  0  0  0  0  0
   10.3293    5.7700    8.8808 C   0  0  0  0  0  0  0  0  0  0  0  0
   10.1592    4.4643    9.3087 N   0  0  0  0  0  0  0  0  0  0  0  0
   10.6187    4.1934   10.6468 C   0  0  0  0  0  0  0  0  0  0  0  0
    9.3986    3.7472    8.3824 C   0  0  0  0  0  0  0  0  0  0  0  0
    9.0405    2.3822    8.0720 C   0  0  0  0  0  0  0  0  0  0  0  0
    9.1685    1.1643    8.7969 C   0  0  0  0  0  0  0  0  0  0  0  0
    8.8453   -0.1570    8.2766 C   0  0  0  0  0  0  0  0  0  0  0  0
    8.3359   -0.2285    6.9675 C   0  0  0  0  0  0  0  0  0  0  0  0
    9.0539   -1.1677    9.2875 C   0  0  0  0  0  0  0  0  0  0  0  0
    8.8424   -2.3728    9.3772 O   0  0  0  0  0  0  0  0  0  0  0  0
    9.5677   -0.4305   10.3136 N   0  0  0  0  0  0  0  0  0  0  0  0
    9.4780    0.9453   10.1895 C   0  0  0  0  0  0  0  0  0  0  0  0
    9.5215    1.6702   11.1763 O   0  0  0  0  0  0  0  0  0  0  0  0
    3.7137    3.2575    1.3686 H   0  0  0  0  0  0  0  0  0  0  0  0
    4.7933    3.2519    2.7689 H   0  0  0  0  0  0  0  0  0  0  0  0
    3.0296    3.3647    2.9930 H   0  0  0  0  0  0  0  0  0  0  0  0
    4.3835    1.0404    1.6128 H   0  0  0  0  0  0  0  0  0  0  0  0
    2.7152    1.0712    2.1684 H   0  0  0  0  0  0  0  0  0  0  0  0
    3.6537    2.3575    4.9589 H   0  0  0  0  0  0  0  0  0  0  0  0
    4.0015    0.8712    5.7747 H   0  0  0  0  0  0  0  0  0  0  0  0
    1.4637    1.1965    4.0778 H   0  0  0  0  0  0  0  0  0  0  0  0
    1.5641    1.5902    5.7937 H   0  0  0  0  0  0  0  0  0  0  0  0
    1.8309   -0.0721    5.2638 H   0  0  0  0  0  0  0  0  0  0  0  0
    3.0404   -1.0157    3.4404 H   0  0  0  0  0  0  0  0  0  0  0  0
    4.3603   -1.1388    4.5886 H   0  0  0  0  0  0  0  0  0  0  0  0
    4.6390   -1.0555    1.5358 H   0  0  0  0  0  0  0  0  0  0  0  0
    4.7436   -2.4612    2.5535 H   0  0  0  0  0  0  0  0  0  0  0  0
    6.6695   -0.0716    2.6031 H   0  0  0  0  0  0  0  0  0  0  0  0
    6.9905   -1.6226    1.8679 H   0  0  0  0  0  0  0  0  0  0  0  0
    6.5557   -3.7471    3.4833 H   0  0  0  0  0  0  0  0  0  0  0  0
    7.2282   -4.6708    5.6510 H   0  0  0  0  0  0  0  0  0  0  0  0
    8.0836   -3.2328    7.4355 H   0  0  0  0  0  0  0  0  0  0  0  0
    7.3015    1.0929    4.3299 H   0  0  0  0  0  0  0  0  0  0  0  0
    7.6362    3.1080    4.9468 H   0  0  0  0  0  0  0  0  0  0  0  0
    7.8786    5.3810    5.7502 H   0  0  0  0  0  0  0  0  0  0  0  0
    8.8678    7.0234    7.8505 H   0  0  0  0  0  0  0  0  0  0  0  0
   11.0771    6.4245    9.3100 H   0  0  0  0  0  0  0  0  0  0  0  0
   10.9908    3.1912   10.7666 H   0  0  0  0  0  0  0  0  0  0  0  0
    9.7944    4.4592   11.3209 H   0  0  0  0  0  0  0  0  0  0  0  0
   11.4558    4.8691   10.8787 H   0  0  0  0  0  0  0  0  0  0  0  0
    9.6718   -0.8362   11.2253 H   0  0  0  0  0  0  0  0  0  0  0  0
  1  2  1  0  0  0  0
  1 35  1  0  0  0  0
  1 36  1  0  0  0  0
  1 37  1  0  0  0  0
  2  3  1  0  0  0  0
  2 38  1  0  0  0  0
  2 39  1  0  0  0  0
  3  4  1  0  0  0  0
  3  6  1  0  0  0  0
  4  5  1  0  0  0  0
  4 40  1  0  0  0  0
  4 41  1  0  0  0  0
  5 42  1  0  0  0  0
  5 43  1  0  0  0  0
  5 44  1  0  0  0  0
  6  7  1  0  0  0  0
  6 45  1  0  0  0  0
  6 46  1  0  0  0  0
  7  8  1  0  0  0  0
  7 47  1  0  0  0  0
  7 48  1  0  0  0  0
  8  9  1  0  0  0  0
  8 49  1  0  0  0  0
  8 50  1  0  0  0  0
  9 10  1  0  0  0  0
  9 14  2  0  0  0  0
 10 11  2  0  0  0  0
 10 51  1  0  0  0  0
 11 12  1  0  0  0  0
 11 52  1  0  0  0  0
 12 13  2  0  0  0  0
 12 53  1  0  0  0  0
 13 14  1  0  0  0  0
 13 29  1  0  0  0  0
 14 15  1  0  0  0  0
 15 16  1  0  0  0  0
 15 54  1  0  0  0  0
 16 17  1  0  0  0  0
 16 29  2  0  0  0  0
 17 18  1  0  0  0  0
 17 26  2  0  0  0  0
 18 19  2  0  0  0  0
 18 55  1  0  0  0  0
 19 20  1  0  0  0  0
 19 56  1  0  0  0  0
 20 21  1  0  0  0  0
 20 25  2  0  0  0  0
 21 22  2  0  0  0  0
 21 57  1  0  0  0  0
 22 23  1  0  0  0  0
 22 58  1  0  0  0  0
 23 24  1  0  0  0  0
 23 25  1  0  0  0  0
 24 59  1  0  0  0  0
 24 60  1  0  0  0  0
 24 61  1  0  0  0  0
 25 26  1  0  0  0  0
 26 27  1  0  0  0  0
 27 28  2  0  0  0  0
 27 33  1  0  0  0  0
 28 29  1  0  0  0  0
 28 30  1  0  0  0  0
 30 31  2  0  0  0  0
 30 32  1  0  0  0  0
 32 33  1  0  0  0  0
 32 62  1  0  0  0  0
 33 34  2  0  0  0  0
M  END
$$$$
