
 OpenBabel01112422133D

 71 74  0  0  1  0  0  0  0  0999 V2000
    6.1683    0.7090    2.5348 N   0  0  0  0  0  0  0  0  0  0  0  0
    4.9089    1.1644    1.8774 C   0  0  3  0  0  0  0  0  0  0  0  0
    4.0073    2.0018    2.8004 C   0  0  0  0  0  0  0  0  0  0  0  0
    3.5098    1.2892    4.0343 C   0  0  0  0  0  0  0  0  0  0  0  0
    3.8404    1.7751    5.3067 C   0  0  0  0  0  0  0  0  0  0  0  0
    3.3276    1.1659    6.4518 C   0  0  0  0  0  0  0  0  0  0  0  0
    2.4805    0.0659    6.3368 C   0  0  0  0  0  0  0  0  0  0  0  0
    2.1515   -0.4306    5.0770 C   0  0  0  0  0  0  0  0  0  0  0  0
    2.6628    0.1775    3.9296 C   0  0  0  0  0  0  0  0  0  0  0  0
    5.2528    2.0116    0.6350 C   0  0  0  0  0  0  0  0  0  0  0  0
    4.5225    2.8881    0.1819 O   0  0  0  0  0  0  0  0  0  0  0  0
    6.4545    1.6675    0.0641 N   0  0  0  0  0  0  0  0  0  0  0  0
    7.0162    2.3933   -1.0444 C   0  0  0  0  0  0  0  0  0  0  0  0
    6.5420    1.8521   -2.4027 C   0  0  0  0  0  0  0  0  0  0  0  0
    7.0379    2.6115   -3.5574 N   0  0  0  0  0  0  0  0  0  0  0  0
    8.4959    2.6026   -3.6353 C   0  0  0  0  0  0  0  0  0  0  0  0
    8.9566    3.4522   -4.8130 C   0  0  0  0  0  0  0  0  0  0  0  0
   10.4857    3.5246   -4.8525 C   0  0  0  0  0  0  0  0  0  0  0  0
   11.0120    4.3871   -5.9983 C   0  0  0  0  0  0  0  0  0  0  0  0
   10.5724    5.8484   -5.8875 C   0  0  0  0  0  0  0  0  0  0  0  0
   11.0846    6.6194   -7.0220 N   0  0  0  0  0  0  0  0  0  0  0  0
   10.3273    7.6756   -7.5184 C   0  0  0  0  0  0  0  0  0  0  0  0
    9.8076    8.7967   -6.9950 C   0  0  0  0  0  0  0  0  0  0  0  0
    9.9336    9.2789   -5.6689 C   0  0  0  0  0  0  0  0  0  0  0  0
   10.8407    9.1504   -4.6354 C   0  0  0  0  0  0  0  0  0  0  0  0
   10.2927    9.7854   -3.4803 C   0  0  0  0  0  0  0  0  0  0  0  0
   10.6963    9.9302   -2.1373 C   0  0  0  0  0  0  0  0  0  0  0  0
    9.8391   10.5665   -1.2270 C   0  0  0  0  0  0  0  0  0  0  0  0
    8.6112   11.0801   -1.6402 C   0  0  0  0  0  0  0  0  0  0  0  0
    8.2125   10.9941   -2.9746 C   0  0  0  0  0  0  0  0  0  0  0  0
    9.0717   10.3385   -3.8620 C   0  0  0  0  0  0  0  0  0  0  0  0
    8.9312   10.1041   -5.2058 N   0  0  0  0  0  0  0  0  0  0  0  0
    8.9119    9.3866   -8.0258 C   0  0  0  0  0  0  0  0  0  0  0  0
    8.1392   10.3131   -7.8484 O   0  0  0  0  0  0  0  0  0  0  0  0
    9.0356    8.6592   -9.1494 N   0  0  0  0  0  0  0  0  0  0  0  0
    9.7759    7.5650   -8.9044 C   0  0  0  0  0  0  0  0  0  0  0  0
    9.9165    6.5915   -9.6248 O   0  0  0  0  0  0  0  0  0  0  0  0
    5.9085    0.2247    3.3980 H   0  0  0  0  0  0  0  0  0  0  0  0
    6.6817    1.5362    2.8443 H   0  0  0  0  0  0  0  0  0  0  0  0
    4.3780    0.2760    1.5162 H   0  0  0  0  0  0  0  0  0  0  0  0
    3.1245    2.3486    2.2468 H   0  0  0  0  0  0  0  0  0  0  0  0
    4.5434    2.9158    3.0911 H   0  0  0  0  0  0  0  0  0  0  0  0
    4.4834    2.6457    5.4151 H   0  0  0  0  0  0  0  0  0  0  0  0
    3.5761    1.5606    7.4334 H   0  0  0  0  0  0  0  0  0  0  0  0
    2.0680   -0.3977    7.2288 H   0  0  0  0  0  0  0  0  0  0  0  0
    1.4829   -1.2830    4.9875 H   0  0  0  0  0  0  0  0  0  0  0  0
    2.3756   -0.2100    2.9546 H   0  0  0  0  0  0  0  0  0  0  0  0
    6.9834    0.9393    0.5404 H   0  0  0  0  0  0  0  0  0  0  0  0
    8.1007    2.3068   -0.9355 H   0  0  0  0  0  0  0  0  0  0  0  0
    6.7502    3.4533   -0.9495 H   0  0  0  0  0  0  0  0  0  0  0  0
    5.4459    1.8694   -2.4379 H   0  0  0  0  0  0  0  0  0  0  0  0
    6.8264    0.7976   -2.5050 H   0  0  0  0  0  0  0  0  0  0  0  0
    6.6954    3.5714   -3.4926 H   0  0  0  0  0  0  0  0  0  0  0  0
    8.8630    1.5764   -3.7483 H   0  0  0  0  0  0  0  0  0  0  0  0
    8.9385    3.0285   -2.7294 H   0  0  0  0  0  0  0  0  0  0  0  0
    8.5333    4.4562   -4.6995 H   0  0  0  0  0  0  0  0  0  0  0  0
    8.5754    3.0401   -5.7550 H   0  0  0  0  0  0  0  0  0  0  0  0
   10.8906    2.5106   -4.9598 H   0  0  0  0  0  0  0  0  0  0  0  0
   10.8646    3.9165   -3.9004 H   0  0  0  0  0  0  0  0  0  0  0  0
   10.6748    3.9637   -6.9529 H   0  0  0  0  0  0  0  0  0  0  0  0
   12.1079    4.3362   -6.0055 H   0  0  0  0  0  0  0  0  0  0  0  0
   10.9354    6.2774   -4.9489 H   0  0  0  0  0  0  0  0  0  0  0  0
    9.4791    5.9069   -5.8868 H   0  0  0  0  0  0  0  0  0  0  0  0
   11.2779    5.9894   -7.8106 H   0  0  0  0  0  0  0  0  0  0  0  0
   11.7796    8.6123   -4.6809 H   0  0  0  0  0  0  0  0  0  0  0  0
   11.6483    9.5323   -1.8000 H   0  0  0  0  0  0  0  0  0  0  0  0
   10.1310   10.6528   -0.1833 H   0  0  0  0  0  0  0  0  0  0  0  0
    7.9517   11.5548   -0.9170 H   0  0  0  0  0  0  0  0  0  0  0  0
    7.2615   11.4014   -3.3031 H   0  0  0  0  0  0  0  0  0  0  0  0
    8.1589   10.4450   -5.7671 H   0  0  0  0  0  0  0  0  0  0  0  0
    8.4507    8.7715   -9.9602 H   0  0  0  0  0  0  0  0  0  0  0  0
  1  2  1  0  0  0  0
  1 38  1  0  0  0  0
  1 39  1  0  0  0  0
  2  3  1  0  0  0  0
  2 10  1  0  0  0  0
  2 40  1  0  0  0  0
  3  4  1  0  0  0  0
  3 41  1  0  0  0  0
  3 42  1  0  0  0  0
  4  5  1  0  0  0  0
  4  9  2  0  0  0  0
  5  6  2  0  0  0  0
  5 43  1  0  0  0  0
  6  7  1  0  0  0  0
  6 44  1  0  0  0  0
  7  8  2  0  0  0  0
  7 45  1  0  0  0  0
  8  9  1  0  0  0  0
  8 46  1  0  0  0  0
  9 47  1  0  0  0  0
 10 11  2  0  0  0  0
 10 12  1  0  0  0  0
 12 13  1  0  0  0  0
 12 48  1  0  0  0  0
 13 14  1  0  0  0  0
 13 49  1  0  0  0  0
 13 50  1  0  0  0  0
 14 15  1  0  0  0  0
 14 51  1  0  0  0  0
 14 52  1  0  0  0  0
 15 16  1  0  0  0  0
 15 53  1  0  0  0  0
 16 17  1  0  0  0  0
 16 54  1  0  0  0  0
 16 55  1  0  0  0  0
 17 18  1  0  0  0  0
 17 56  1  0  0  0  0
 17 57  1  0  0  0  0
 18 19  1  0  0  0  0
 18 58  1  0  0  0  0
 18 59  1  0  0  0  0
 19 20  1  0  0  0  0
 19 60  1  0  0  0  0
 19 61  1  0  0  0  0
 20 21  1  0  0  0  0
 20 62  1  0  0  0  0
 20 63  1  0  0  0  0
 21 22  1  0  0  0  0
 21 64  1  0  0  0  0
 22 23  2  0  0  0  0
 22 36  1  0  0  0  0
 23 24  1  0  0  0  0
 23 33  1  0  0  0  0
 24 25  2  0  0  0  0
 24 32  1  0  0  0  0
 25 26  1  0  0  0  0
 25 65  1  0  0  0  0
 26 27  1  0  0  0  0
 26 31  2  0  0  0  0
 27 28  2  0  0  0  0
 27 66  1  0  0  0  0
 28 29  1  0  0  0  0
 28 67  1  0  0  0  0
 29 30  2  0  0  0  0
 29 68  1  0  0  0  0
 30 31  1  0  0  0  0
 30 69  1  0  0  0  0
 31 32  1  0  0  0  0
 32 70  1  0  0  0  0
 33 34  2  0  0  0  0
 33 35  1  0  0  0  0
 35 36  1  0  0  0  0
 35 71  1  0  0  0  0
 36 37  2  0  0  0  0
M  END
$$$$
