
 OpenBabel01112422533D

 52 56  0  0  1  0  0  0  0  0999 V2000
    1.3089    0.0636   -1.3959 C   0  0  0  0  0  0  0  0  0  0  0  0
    2.6278    0.0109   -0.7199 C   0  0  0  0  0  0  0  0  0  0  0  0
    3.2923    1.1296   -0.4009 N   0  0  0  0  0  0  0  0  0  0  0  0
    4.4150    0.6798    0.1941 N   0  0  0  0  0  0  0  0  0  0  0  0
    4.4966   -0.6835    0.2692 C   0  0  0  0  0  0  0  0  0  0  0  0
    5.4504   -1.5360    0.7961 C   0  0  0  0  0  0  0  0  0  0  0  0
    5.2399   -2.8745    0.7139 N   0  0  0  0  0  0  0  0  0  0  0  0
    4.1195   -3.3568    0.1139 C   0  0  0  0  0  0  0  0  0  0  0  0
    3.9893   -4.8201    0.0657 C   0  0  0  0  0  0  0  0  0  0  0  0
    4.5380   -5.6449    1.0458 C   0  0  0  0  0  0  0  0  0  0  0  0
    4.4005   -6.9962    1.0884 N   0  0  0  0  0  0  0  0  0  0  0  0
    3.6845   -7.5661    0.0917 C   0  0  0  0  0  0  0  0  0  0  0  0
    3.1137   -6.8548   -0.9492 C   0  0  0  0  0  0  0  0  0  0  0  0
    2.3836   -7.3436   -1.9879 O   0  0  0  0  0  0  0  0  0  0  0  0
    2.1466   -8.7559   -2.0348 C   0  0  0  0  0  0  0  0  0  0  0  0
    1.3095   -9.0275   -3.3067 C   0  0  1  0  0  0  0  0  0  0  0  0
    2.0712   -8.5778   -4.4954 N   0  0  0  0  0  0  0  0  0  0  0  0
    0.8798  -10.5092   -3.3930 C   0  0  0  0  0  0  0  0  0  0  0  0
    0.0725  -10.8325   -4.6207 C   0  0  0  0  0  0  0  0  0  0  0  0
    0.6019  -11.2576   -5.8252 C   0  0  0  0  0  0  0  0  0  0  0  0
   -0.4143  -11.3895   -6.7264 N   0  0  0  0  0  0  0  0  0  0  0  0
   -1.6160  -11.0762   -6.1386 C   0  0  0  0  0  0  0  0  0  0  0  0
   -2.9020  -11.0551   -6.6933 C   0  0  0  0  0  0  0  0  0  0  0  0
   -3.9613  -10.6864   -5.8619 C   0  0  0  0  0  0  0  0  0  0  0  0
   -3.7387  -10.3637   -4.5258 C   0  0  0  0  0  0  0  0  0  0  0  0
   -2.4419  -10.3885   -3.9862 C   0  0  0  0  0  0  0  0  0  0  0  0
   -1.3503  -10.7418   -4.8083 C   0  0  0  0  0  0  0  0  0  0  0  0
    3.2824   -5.4749   -0.9556 C   0  0  0  0  0  0  0  0  0  0  0  0
    3.1323   -2.5277   -0.4167 C   0  0  0  0  0  0  0  0  0  0  0  0
    3.3407   -1.1496   -0.3314 C   0  0  0  0  0  0  0  0  0  0  0  0
    0.9871    1.0923   -1.5838 H   0  0  0  0  0  0  0  0  0  0  0  0
    0.5485   -0.4239   -0.7768 H   0  0  0  0  0  0  0  0  0  0  0  0
    1.3532   -0.4617   -2.3556 H   0  0  0  0  0  0  0  0  0  0  0  0
    5.0829    1.3605    0.5266 H   0  0  0  0  0  0  0  0  0  0  0  0
    6.3640   -1.2078    1.2767 H   0  0  0  0  0  0  0  0  0  0  0  0
    5.1130   -5.2256    1.8689 H   0  0  0  0  0  0  0  0  0  0  0  0
    3.5933   -8.6427    0.1782 H   0  0  0  0  0  0  0  0  0  0  0  0
    1.5909   -9.0685   -1.1433 H   0  0  0  0  0  0  0  0  0  0  0  0
    3.1029   -9.2938   -2.0844 H   0  0  0  0  0  0  0  0  0  0  0  0
    0.4100   -8.4009   -3.2606 H   0  0  0  0  0  0  0  0  0  0  0  0
    2.9266   -9.1218   -4.5861 H   0  0  0  0  0  0  0  0  0  0  0  0
    2.3646   -7.6126   -4.3331 H   0  0  0  0  0  0  0  0  0  0  0  0
    0.2975  -10.7725   -2.5006 H   0  0  0  0  0  0  0  0  0  0  0  0
    1.7706  -11.1522   -3.3753 H   0  0  0  0  0  0  0  0  0  0  0  0
    1.6269  -11.4339   -6.1226 H   0  0  0  0  0  0  0  0  0  0  0  0
   -0.3038  -11.6576   -7.6938 H   0  0  0  0  0  0  0  0  0  0  0  0
   -3.0741  -11.3065   -7.7346 H   0  0  0  0  0  0  0  0  0  0  0  0
   -4.9698  -10.6494   -6.2666 H   0  0  0  0  0  0  0  0  0  0  0  0
   -4.5781  -10.0824   -3.8959 H   0  0  0  0  0  0  0  0  0  0  0  0
   -2.2898  -10.1304   -2.9441 H   0  0  0  0  0  0  0  0  0  0  0  0
    2.8512   -4.9093   -1.7793 H   0  0  0  0  0  0  0  0  0  0  0  0
    2.2295   -2.9156   -0.8686 H   0  0  0  0  0  0  0  0  0  0  0  0
  1  2  1  0  0  0  0
  1 31  1  0  0  0  0
  1 32  1  0  0  0  0
  1 33  1  0  0  0  0
  2  3  2  0  0  0  0
  2 30  1  0  0  0  0
  3  4  1  0  0  0  0
  4  5  1  0  0  0  0
  4 34  1  0  0  0  0
  5  6  1  0  0  0  0
  5 30  2  0  0  0  0
  6  7  2  0  0  0  0
  6 35  1  0  0  0  0
  7  8  1  0  0  0  0
  8  9  1  0  0  0  0
  8 29  2  0  0  0  0
  9 10  1  0  0  0  0
  9 28  2  0  0  0  0
 10 11  2  0  0  0  0
 10 36  1  0  0  0  0
 11 12  1  0  0  0  0
 12 13  2  0  0  0  0
 12 37  1  0  0  0  0
 13 14  1  0  0  0  0
 13 28  1  0  0  0  0
 14 15  1  0  0  0  0
 15 16  1  0  0  0  0
 15 38  1  0  0  0  0
 15 39  1  0  0  0  0
 16 17  1  0  0  0  0
 16 18  1  0  0  0  0
 16 40  1  1  0  0  0
 17 41  1  0  0  0  0
 17 42  1  0  0  0  0
 18 19  1  0  0  0  0
 18 43  1  0  0  0  0
 18 44  1  0  0  0  0
 19 20  2  0  0  0  0
 19 27  1  0  0  0  0
 20 21  1  0  0  0  0
 20 45  1  0  0  0  0
 21 22  1  0  0  0  0
 21 46  1  0  0  0  0
 22 23  1  0  0  0  0
 22 27  2  0  0  0  0
 23 24  2  0  0  0  0
 23 47  1  0  0  0  0
 24 25  1  0  0  0  0
 24 48  1  0  0  0  0
 25 26  2  0  0  0  0
 25 49  1  0  0  0  0
 26 27  1  0  0  0  0
 26 50  1  0  0  0  0
 28 51  1  0  0  0  0
 29 30  1  0  0  0  0
 29 52  1  0  0  0  0
M  END
$$$$
