
 OpenBabel01112422183D

 72 80  0  0  1  0  0  0  0  0999 V2000
    0.5840   -1.4361   -1.8956 C   0  0  0  0  0  0  0  0  0  0  0  0
    0.8887   -0.1359   -1.4705 O   0  0  0  0  0  0  0  0  0  0  0  0
    1.1529    0.2033   -0.0869 C   0  0  1  0  0  0  0  0  0  0  0  0
    1.7733    1.5653   -0.2728 C   0  0  1  0  0  0  0  0  0  0  0  0
    3.2333    1.3428   -0.5410 N   0  0  0  0  0  0  0  0  0  0  0  0
    3.9284    0.3103    0.2482 C   0  0  0  0  0  0  0  0  0  0  0  0
    3.9872    1.8317   -1.5821 C   0  0  0  0  0  0  0  0  0  0  0  0
    4.9444    1.2330   -2.0668 O   0  0  0  0  0  0  0  0  0  0  0  0
    3.7628    3.2052   -2.0088 C   0  0  0  0  0  0  0  0  0  0  0  0
    3.7468    4.2452   -1.0778 C   0  0  0  0  0  0  0  0  0  0  0  0
    3.7053    5.5481   -1.5511 C   0  0  0  0  0  0  0  0  0  0  0  0
    3.6852    5.7397   -2.9281 C   0  0  0  0  0  0  0  0  0  0  0  0
    3.7135    4.7426   -3.8460 N   0  0  0  0  0  0  0  0  0  0  0  0
    3.7741    3.4812   -3.3582 C   0  0  0  0  0  0  0  0  0  0  0  0
    0.6727    2.2639   -1.2440 C   0  0  0  0  0  0  0  0  0  0  0  0
   -0.8995    1.7575   -0.9589 C   0  0  2  0  0  0  0  0  0  0  0  0
   -0.8704    1.6075    0.4597 O   0  0  0  0  0  0  0  0  0  0  0  0
   -0.0133    0.4939    0.8657 C   0  0  2  0  0  0  0  0  0  0  0  0
    0.3024    0.9903    2.2972 C   0  0  0  0  0  0  0  0  0  0  0  0
   -0.7543   -0.7431    0.8835 N   0  0  0  0  0  0  0  0  0  0  0  0
   -0.7495   -1.7225    1.8874 C   0  0  0  0  0  0  0  0  0  0  0  0
    0.3494   -2.4255    2.4098 C   0  0  0  0  0  0  0  0  0  0  0  0
    0.0966   -3.3823    3.3823 C   0  0  0  0  0  0  0  0  0  0  0  0
   -1.1871   -3.5496    3.8949 C   0  0  0  0  0  0  0  0  0  0  0  0
   -2.2710   -2.7543    3.4753 C   0  0  0  0  0  0  0  0  0  0  0  0
   -2.0795   -1.8595    2.4084 C   0  0  0  0  0  0  0  0  0  0  0  0
   -2.9347   -1.0910    1.5732 C   0  0  0  0  0  0  0  0  0  0  0  0
   -4.1794   -0.4906    1.7923 C   0  0  0  0  0  0  0  0  0  0  0  0
   -4.8660   -0.2848    0.5569 C   0  0  0  0  0  0  0  0  0  0  0  0
   -3.9286   -0.0045   -0.4768 C   0  0  0  0  0  0  0  0  0  0  0  0
   -4.1151    0.9513   -1.4833 C   0  0  0  0  0  0  0  0  0  0  0  0
   -5.1521    1.7818   -1.9092 C   0  0  0  0  0  0  0  0  0  0  0  0
   -5.2674    1.9514   -3.2776 C   0  0  0  0  0  0  0  0  0  0  0  0
   -4.4145    1.2444   -4.1292 C   0  0  0  0  0  0  0  0  0  0  0  0
   -3.2089    0.6782   -3.6668 C   0  0  0  0  0  0  0  0  0  0  0  0
   -2.9273    0.8625   -2.3080 C   0  0  0  0  0  0  0  0  0  0  0  0
   -1.7737    0.6280   -1.4656 N   0  0  0  0  0  0  0  0  0  0  0  0
   -2.5338   -0.0944   -0.5298 C   0  0  0  0  0  0  0  0  0  0  0  0
   -2.0395   -0.7208    0.5774 C   0  0  0  0  0  0  0  0  0  0  0  0
   -6.0753    0.4041    0.8296 C   0  0  0  0  0  0  0  0  0  0  0  0
   -7.1400    0.4950    0.2483 O   0  0  0  0  0  0  0  0  0  0  0  0
   -5.7700    1.1019    1.9825 N   0  0  0  0  0  0  0  0  0  0  0  0
   -4.4619    0.7936    2.5321 C   0  0  0  0  0  0  0  0  0  0  0  0
    1.3916   -1.7780   -2.5484 H   0  0  0  0  0  0  0  0  0  0  0  0
   -0.3093   -1.3716   -2.5266 H   0  0  0  0  0  0  0  0  0  0  0  0
    0.4221   -2.1371   -1.0822 H   0  0  0  0  0  0  0  0  0  0  0  0
    1.7698   -0.5877    0.3363 H   0  0  0  0  0  0  0  0  0  0  0  0
    1.8157    2.1518    0.6531 H   0  0  0  0  0  0  0  0  0  0  0  0
    3.4734    0.1950    1.2393 H   0  0  0  0  0  0  0  0  0  0  0  0
    4.9778    0.5787    0.4035 H   0  0  0  0  0  0  0  0  0  0  0  0
    3.8928   -0.6393   -0.2995 H   0  0  0  0  0  0  0  0  0  0  0  0
    3.8335    4.0500   -0.0113 H   0  0  0  0  0  0  0  0  0  0  0  0
    3.7188    6.3918   -0.8755 H   0  0  0  0  0  0  0  0  0  0  0  0
    3.6564    6.7402   -3.3536 H   0  0  0  0  0  0  0  0  0  0  0  0
    3.8696    2.6839   -4.0918 H   0  0  0  0  0  0  0  0  0  0  0  0
    0.6762    3.3176   -0.9174 H   0  0  0  0  0  0  0  0  0  0  0  0
    0.9322    2.2540   -2.3032 H   0  0  0  0  0  0  0  0  0  0  0  0
   -1.5105    2.6421   -1.1887 H   0  0  0  0  0  0  0  0  0  0  0  0
    0.5654    2.0576    2.3094 H   0  0  0  0  0  0  0  0  0  0  0  0
   -0.6106    0.9536    2.9127 H   0  0  0  0  0  0  0  0  0  0  0  0
    1.0864    0.4266    2.7988 H   0  0  0  0  0  0  0  0  0  0  0  0
    1.3487   -2.2954    2.0091 H   0  0  0  0  0  0  0  0  0  0  0  0
    0.9094   -4.0196    3.7232 H   0  0  0  0  0  0  0  0  0  0  0  0
   -1.3630   -4.3489    4.6099 H   0  0  0  0  0  0  0  0  0  0  0  0
   -3.2637   -2.9432    3.8671 H   0  0  0  0  0  0  0  0  0  0  0  0
   -5.9306    2.1265   -1.2390 H   0  0  0  0  0  0  0  0  0  0  0  0
   -6.1172    2.5070   -3.6615 H   0  0  0  0  0  0  0  0  0  0  0  0
   -4.7065    1.1288   -5.1693 H   0  0  0  0  0  0  0  0  0  0  0  0
   -2.5831    0.0729   -4.3128 H   0  0  0  0  0  0  0  0  0  0  0  0
   -6.3750    1.8639    2.2597 H   0  0  0  0  0  0  0  0  0  0  0  0
   -4.4721    0.7653    3.6139 H   0  0  0  0  0  0  0  0  0  0  0  0
   -3.7751    1.5771    2.1612 H   0  0  0  0  0  0  0  0  0  0  0  0
  1  2  1  0  0  0  0
  1 44  1  0  0  0  0
  1 45  1  0  0  0  0
  1 46  1  0  0  0  0
  3  4  1  0  0  0  0
  3 18  1  0  0  0  0
  3  2  1  0  0  0  0
  3 47  1  1  0  0  0
  4 15  1  0  0  0  0
  4  5  1  0  0  0  0
  4 48  1  1  0  0  0
  5  6  1  0  0  0  0
  5  7  1  0  0  0  0
  6 49  1  0  0  0  0
  6 50  1  0  0  0  0
  6 51  1  0  0  0  0
  7  8  2  0  0  0  0
  7  9  1  0  0  0  0
  9 10  1  0  0  0  0
  9 14  2  0  0  0  0
 10 11  2  0  0  0  0
 10 52  1  0  0  0  0
 11 12  1  0  0  0  0
 11 53  1  0  0  0  0
 12 13  2  0  0  0  0
 12 54  1  0  0  0  0
 13 14  1  0  0  0  0
 14 55  1  0  0  0  0
 15 16  1  0  0  0  0
 15 56  1  0  0  0  0
 15 57  1  0  0  0  0
 16 17  1  0  0  0  0
 16 37  1  0  0  0  0
 16 58  1  6  0  0  0
 17 18  1  0  0  0  0
 18 20  1  0  0  0  0
 18 19  1  1  0  0  0
 19 59  1  0  0  0  0
 19 60  1  0  0  0  0
 19 61  1  0  0  0  0
 20 21  1  0  0  0  0
 20 39  1  0  0  0  0
 21 22  1  0  0  0  0
 21 26  2  0  0  0  0
 22 23  2  0  0  0  0
 22 62  1  0  0  0  0
 23 24  1  0  0  0  0
 23 63  1  0  0  0  0
 24 25  2  0  0  0  0
 24 64  1  0  0  0  0
 25 26  1  0  0  0  0
 25 65  1  0  0  0  0
 26 27  1  0  0  0  0
 27 28  1  0  0  0  0
 27 39  2  0  0  0  0
 28 29  2  0  0  0  0
 28 43  1  0  0  0  0
 29 30  1  0  0  0  0
 29 40  1  0  0  0  0
 30 31  1  0  0  0  0
 30 38  2  0  0  0  0
 31 32  1  0  0  0  0
 31 36  2  0  0  0  0
 32 33  2  0  0  0  0
 32 66  1  0  0  0  0
 33 34  1  0  0  0  0
 33 67  1  0  0  0  0
 34 35  2  0  0  0  0
 34 68  1  0  0  0  0
 35 36  1  0  0  0  0
 35 69  1  0  0  0  0
 36 37  1  0  0  0  0
 37 38  1  0  0  0  0
 38 39  1  0  0  0  0
 40 42  1  0  0  0  0
 40 41  2  0  0  0  0
 42 43  1  0  0  0  0
 42 70  1  0  0  0  0
 43 71  1  0  0  0  0
 43 72  1  0  0  0  0
M  END
$$$$
