
 OpenBabel01112423023D

 47 49  0  0  0  0  0  0  0  0999 V2000
    2.9595    0.5440   -1.3019 O   0  0  0  0  0  0  0  0  0  0  0  0
    2.4675   -0.0044   -0.0555 S   0  0  0  0  0  0  0  0  0  0  0  0
    1.0555   -0.0245    0.2609 O   0  0  0  0  0  0  0  0  0  0  0  0
    3.0477   -1.5963    0.0611 N   0  0  0  0  0  0  0  0  0  0  0  0
    2.5616   -2.3466    1.2234 C   0  0  0  0  0  0  0  0  0  0  0  0
    3.0284   -3.8112    1.1972 C   0  0  0  0  0  0  0  0  0  0  0  0
    2.5400   -4.5845    2.3478 N   0  0  0  0  0  0  0  0  0  0  0  0
    1.0784   -4.6586    2.3660 C   0  0  0  0  0  0  0  0  0  0  0  0
    0.6328   -5.3619    3.6024 C   0  0  0  0  0  0  0  0  0  0  0  0
   -0.1486   -4.7839    4.5304 C   0  0  0  0  0  0  0  0  0  0  0  0
   -0.5629   -5.4332    5.7787 C   0  0  0  0  0  0  0  0  0  0  0  0
    0.2430   -6.3848    6.4159 C   0  0  0  0  0  0  0  0  0  0  0  0
   -0.1424   -6.9453    7.6329 C   0  0  0  0  0  0  0  0  0  0  0  0
   -1.3343   -6.5445    8.2280 C   0  0  0  0  0  0  0  0  0  0  0  0
   -1.8433   -7.2856    9.8908 Br  0  0  0  0  0  0  0  0  0  0  0  0
   -2.1461   -5.5923    7.6149 C   0  0  0  0  0  0  0  0  0  0  0  0
   -1.7582   -5.0341    6.3933 C   0  0  0  0  0  0  0  0  0  0  0  0
    3.3369    0.8119    1.2743 C   0  0  0  0  0  0  0  0  0  0  0  0
    2.5685    1.3270    2.3321 C   0  0  0  0  0  0  0  0  0  0  0  0
    3.1950    1.9456    3.4092 C   0  0  0  0  0  0  0  0  0  0  0  0
    4.5841    2.0383    3.4376 C   0  0  0  0  0  0  0  0  0  0  0  0
    5.3660    1.5214    2.3882 C   0  0  0  0  0  0  0  0  0  0  0  0
    6.7609    1.5987    2.4203 C   0  0  0  0  0  0  0  0  0  0  0  0
    7.5853    1.1236    1.4598 N   0  0  0  0  0  0  0  0  0  0  0  0
    6.9961    0.5684    0.3894 C   0  0  0  0  0  0  0  0  0  0  0  0
    5.6233    0.4507    0.2469 C   0  0  0  0  0  0  0  0  0  0  0  0
    4.7571    0.9095    1.2695 C   0  0  0  0  0  0  0  0  0  0  0  0
    4.0459   -1.6781   -0.1309 H   0  0  0  0  0  0  0  0  0  0  0  0
    1.4721   -2.3111    1.1846 H   0  0  0  0  0  0  0  0  0  0  0  0
    2.9069   -1.8773    2.1479 H   0  0  0  0  0  0  0  0  0  0  0  0
    4.1258   -3.8393    1.2132 H   0  0  0  0  0  0  0  0  0  0  0  0
    2.7314   -4.3014    0.2622 H   0  0  0  0  0  0  0  0  0  0  0  0
    2.8566   -4.1452    3.2128 H   0  0  0  0  0  0  0  0  0  0  0  0
    0.7137   -5.1985    1.4868 H   0  0  0  0  0  0  0  0  0  0  0  0
    0.6241   -3.6631    2.3610 H   0  0  0  0  0  0  0  0  0  0  0  0
    0.9743   -6.3874    3.7078 H   0  0  0  0  0  0  0  0  0  0  0  0
   -0.5045   -3.7640    4.3873 H   0  0  0  0  0  0  0  0  0  0  0  0
    1.1907   -6.6904    5.9795 H   0  0  0  0  0  0  0  0  0  0  0  0
    0.5002   -7.6821    8.1067 H   0  0  0  0  0  0  0  0  0  0  0  0
   -3.0755   -5.2737    8.0787 H   0  0  0  0  0  0  0  0  0  0  0  0
   -2.3989   -4.2876    5.9282 H   0  0  0  0  0  0  0  0  0  0  0  0
    1.4811    1.2528    2.3265 H   0  0  0  0  0  0  0  0  0  0  0  0
    2.6041    2.3555    4.2254 H   0  0  0  0  0  0  0  0  0  0  0  0
    5.0593    2.5256    4.2884 H   0  0  0  0  0  0  0  0  0  0  0  0
    7.2792    2.0624    3.2558 H   0  0  0  0  0  0  0  0  0  0  0  0
    7.6690    0.2100   -0.3851 H   0  0  0  0  0  0  0  0  0  0  0  0
    5.2593    0.0211   -0.6797 H   0  0  0  0  0  0  0  0  0  0  0  0
  1  2  2  0  0  0  0
  2  3  2  0  0  0  0
  2  4  1  0  0  0  0
  2 18  1  0  0  0  0
  4  5  1  0  0  0  0
  4 28  1  0  0  0  0
  5  6  1  0  0  0  0
  5 29  1  0  0  0  0
  5 30  1  0  0  0  0
  6  7  1  0  0  0  0
  6 31  1  0  0  0  0
  6 32  1  0  0  0  0
  7  8  1  0  0  0  0
  7 33  1  0  0  0  0
  8  9  1  0  0  0  0
  8 34  1  0  0  0  0
  8 35  1  0  0  0  0
  9 10  2  0  0  0  0
  9 36  1  0  0  0  0
 10 11  1  0  0  0  0
 10 37  1  0  0  0  0
 11 12  1  0  0  0  0
 11 17  2  0  0  0  0
 12 13  2  0  0  0  0
 12 38  1  0  0  0  0
 13 14  1  0  0  0  0
 13 39  1  0  0  0  0
 14 15  1  0  0  0  0
 14 16  2  0  0  0  0
 16 17  1  0  0  0  0
 16 40  1  0  0  0  0
 17 41  1  0  0  0  0
 18 19  1  0  0  0  0
 18 27  2  0  0  0  0
 19 20  2  0  0  0  0
 19 42  1  0  0  0  0
 20 21  1  0  0  0  0
 20 43  1  0  0  0  0
 21 22  2  0  0  0  0
 21 44  1  0  0  0  0
 22 23  1  0  0  0  0
 22 27  1  0  0  0  0
 23 24  2  0  0  0  0
 23 45  1  0  0  0  0
 24 25  1  0  0  0  0
 25 26  2  0  0  0  0
 25 46  1  0  0  0  0
 26 27  1  0  0  0  0
 26 47  1  0  0  0  0
M  END
$$$$
