
 OpenBabel01112422363D

 40 45  0  0  0  0  0  0  0  0999 V2000
    1.3670   -0.5154    0.7819 C   0  0  0  0  0  0  0  0  0  0  0  0
    2.4489   -0.0601   -0.0177 O   0  0  0  0  0  0  0  0  0  0  0  0
    3.0730    1.0875    0.3828 C   0  0  0  0  0  0  0  0  0  0  0  0
    2.7329    1.8701    1.4832 C   0  0  0  0  0  0  0  0  0  0  0  0
    3.4553    3.0312    1.8066 C   0  0  0  0  0  0  0  0  0  0  0  0
    4.5337    3.4212    1.0003 C   0  0  0  0  0  0  0  0  0  0  0  0
    4.8394    2.6289   -0.1234 C   0  0  0  0  0  0  0  0  0  0  0  0
    4.1392    1.4572   -0.4353 C   0  0  0  0  0  0  0  0  0  0  0  0
    5.9037    3.1942   -0.7976 N   0  0  0  0  0  0  0  0  0  0  0  0
    6.3210    4.3440   -0.1749 C   0  0  0  0  0  0  0  0  0  0  0  0
    7.3007    5.2894   -0.5128 C   0  0  0  0  0  0  0  0  0  0  0  0
    7.9425    5.2204   -1.7576 C   0  0  0  0  0  0  0  0  0  0  0  0
    8.8016    6.2439   -2.1487 C   0  0  0  0  0  0  0  0  0  0  0  0
    9.1671    7.2245   -1.2110 C   0  0  0  0  0  0  0  0  0  0  0  0
   10.0206    8.3555   -1.2770 C   0  0  0  0  0  0  0  0  0  0  0  0
   10.2803    8.7230    0.0206 C   0  0  0  0  0  0  0  0  0  0  0  0
    9.3644    8.0897    0.8199 N   0  0  0  0  0  0  0  0  0  0  0  0
    8.6296    7.1833    0.0822 C   0  0  0  0  0  0  0  0  0  0  0  0
    7.5760    6.3164    0.4222 C   0  0  0  0  0  0  0  0  0  0  0  0
    6.7461    6.3897    1.5537 C   0  0  0  0  0  0  0  0  0  0  0  0
    5.6637    5.5017    1.8325 C   0  0  0  0  0  0  0  0  0  0  0  0
    5.5076    4.4278    0.9269 C   0  0  0  0  0  0  0  0  0  0  0  0
    4.9574    5.9567    2.9935 C   0  0  0  0  0  0  0  0  0  0  0  0
    3.9796    5.5511    3.6135 O   0  0  0  0  0  0  0  0  0  0  0  0
    5.6520    7.0787    3.3471 N   0  0  0  0  0  0  0  0  0  0  0  0
    6.7419    7.3981    2.5824 C   0  0  0  0  0  0  0  0  0  0  0  0
    7.4829    8.3429    2.8292 O   0  0  0  0  0  0  0  0  0  0  0  0
    0.9946   -1.4461    0.3434 H   0  0  0  0  0  0  0  0  0  0  0  0
    0.5460    0.2087    0.7763 H   0  0  0  0  0  0  0  0  0  0  0  0
    1.6949   -0.7354    1.8033 H   0  0  0  0  0  0  0  0  0  0  0  0
    1.8986    1.6116    2.1272 H   0  0  0  0  0  0  0  0  0  0  0  0
    3.1549    3.6099    2.6685 H   0  0  0  0  0  0  0  0  0  0  0  0
    4.4077    0.8536   -1.2958 H   0  0  0  0  0  0  0  0  0  0  0  0
    6.3109    2.8052   -1.6343 H   0  0  0  0  0  0  0  0  0  0  0  0
    7.7408    4.4190   -2.4606 H   0  0  0  0  0  0  0  0  0  0  0  0
    9.2360    6.2464   -3.1437 H   0  0  0  0  0  0  0  0  0  0  0  0
   10.4947    8.7582   -2.1621 H   0  0  0  0  0  0  0  0  0  0  0  0
   11.0166    9.3965    0.4367 H   0  0  0  0  0  0  0  0  0  0  0  0
    9.2750    8.2154    1.8221 H   0  0  0  0  0  0  0  0  0  0  0  0
    5.3801    7.6338    4.1443 H   0  0  0  0  0  0  0  0  0  0  0  0
  1  2  1  0  0  0  0
  1 28  1  0  0  0  0
  1 29  1  0  0  0  0
  1 30  1  0  0  0  0
  2  3  1  0  0  0  0
  3  4  1  0  0  0  0
  3  8  2  0  0  0  0
  4  5  2  0  0  0  0
  4 31  1  0  0  0  0
  5  6  1  0  0  0  0
  5 32  1  0  0  0  0
  6  7  2  0  0  0  0
  6 22  1  0  0  0  0
  7  8  1  0  0  0  0
  7  9  1  0  0  0  0
  8 33  1  0  0  0  0
  9 10  1  0  0  0  0
  9 34  1  0  0  0  0
 10 11  1  0  0  0  0
 10 22  2  0  0  0  0
 11 12  1  0  0  0  0
 11 19  2  0  0  0  0
 12 13  2  0  0  0  0
 12 35  1  0  0  0  0
 13 14  1  0  0  0  0
 13 36  1  0  0  0  0
 14 15  1  0  0  0  0
 14 18  2  0  0  0  0
 15 16  2  0  0  0  0
 15 37  1  0  0  0  0
 16 17  1  0  0  0  0
 16 38  1  0  0  0  0
 17 18  1  0  0  0  0
 17 39  1  0  0  0  0
 18 19  1  0  0  0  0
 19 20  1  0  0  0  0
 20 21  2  0  0  0  0
 20 26  1  0  0  0  0
 21 22  1  0  0  0  0
 21 23  1  0  0  0  0
 23 24  2  0  0  0  0
 23 25  1  0  0  0  0
 25 26  1  0  0  0  0
 25 40  1  0  0  0  0
 26 27  2  0  0  0  0
M  END
$$$$
