
 OpenBabel01112422363D

 61 67  0  0  0  0  0  0  0  0999 V2000
    1.5370    0.4093    0.6114 C   0  0  0  0  0  0  0  0  0  0  0  0
    2.2723   -0.8249    0.4175 N   0  0  0  0  0  0  0  0  0  0  0  0
    1.6491   -1.9193   -0.1454 C   0  0  0  0  0  0  0  0  0  0  0  0
    2.5410   -2.9577   -0.1594 C   0  0  0  0  0  0  0  0  0  0  0  0
    3.4600   -2.6254    0.8609 C   0  0  0  0  0  0  0  0  0  0  0  0
    4.2167   -3.4769    1.6838 C   0  0  0  0  0  0  0  0  0  0  0  0
    4.7608   -2.8804    2.8321 C   0  0  0  0  0  0  0  0  0  0  0  0
    4.8219   -1.4706    2.9758 C   0  0  0  0  0  0  0  0  0  0  0  0
    5.4474   -0.8807    4.0982 C   0  0  0  0  0  0  0  0  0  0  0  0
    6.1343   -1.4311    5.1295 N   0  0  0  0  0  0  0  0  0  0  0  0
    7.0179   -0.5005    5.6442 C   0  0  0  0  0  0  0  0  0  0  0  0
    8.1606   -0.7186    6.4304 C   0  0  0  0  0  0  0  0  0  0  0  0
    8.5799   -2.0902    6.9001 C   0  0  0  0  0  0  0  0  0  0  0  0
    8.5247   -2.2069    8.4290 C   0  0  0  0  0  0  0  0  0  0  0  0
    8.8592   -3.5585    8.9252 N   0  0  0  0  0  0  0  0  0  0  0  0
    7.8410   -4.5486    8.5412 C   0  0  0  0  0  0  0  0  0  0  0  0
    8.1811   -5.9450    9.0593 C   0  0  0  0  0  0  0  0  0  0  0  0
    8.4149   -5.9533   10.5630 C   0  0  0  0  0  0  0  0  0  0  0  0
    7.1820   -5.7916   11.2621 O   0  0  0  0  0  0  0  0  0  0  0  0
    9.4098   -4.8706   10.9632 C   0  0  0  0  0  0  0  0  0  0  0  0
    9.0321   -3.5073   10.3870 C   0  0  0  0  0  0  0  0  0  0  0  0
    8.9543    0.4058    6.7028 C   0  0  0  0  0  0  0  0  0  0  0  0
    8.5916    1.6754    6.2654 C   0  0  0  0  0  0  0  0  0  0  0  0
    7.4243    1.8697    5.5248 C   0  0  0  0  0  0  0  0  0  0  0  0
    6.6320    0.7603    5.1669 C   0  0  0  0  0  0  0  0  0  0  0  0
    5.5661    0.4695    4.2975 C   0  0  0  0  0  0  0  0  0  0  0  0
    5.2064    1.3698    3.2298 C   0  0  0  0  0  0  0  0  0  0  0  0
    4.8869    0.6844    2.0230 C   0  0  0  0  0  0  0  0  0  0  0  0
    4.3507   -0.6227    1.9584 C   0  0  0  0  0  0  0  0  0  0  0  0
    3.4453   -1.2231    1.0506 C   0  0  0  0  0  0  0  0  0  0  0  0
    5.9119    1.2323    1.1345 C   0  0  0  0  0  0  0  0  0  0  0  0
    6.6344    0.7154    0.2916 O   0  0  0  0  0  0  0  0  0  0  0  0
    6.1943    2.4711    1.6672 N   0  0  0  0  0  0  0  0  0  0  0  0
    5.7415    2.6511    2.9445 C   0  0  0  0  0  0  0  0  0  0  0  0
    5.8464    3.6896    3.5744 O   0  0  0  0  0  0  0  0  0  0  0  0
    1.9789    1.1776   -0.0213 H   0  0  0  0  0  0  0  0  0  0  0  0
    1.5452    0.6800    1.6681 H   0  0  0  0  0  0  0  0  0  0  0  0
    0.4948    0.2495    0.3040 H   0  0  0  0  0  0  0  0  0  0  0  0
    0.6086   -1.9012   -0.4429 H   0  0  0  0  0  0  0  0  0  0  0  0
    2.3628   -3.9408   -0.5708 H   0  0  0  0  0  0  0  0  0  0  0  0
    4.1925   -4.5320    1.5791 H   0  0  0  0  0  0  0  0  0  0  0  0
    5.1625   -3.5369    3.6069 H   0  0  0  0  0  0  0  0  0  0  0  0
    6.2468   -2.4269    5.2535 H   0  0  0  0  0  0  0  0  0  0  0  0
    9.5870   -2.3134    6.5253 H   0  0  0  0  0  0  0  0  0  0  0  0
    7.9202   -2.8308    6.4451 H   0  0  0  0  0  0  0  0  0  0  0  0
    7.5375   -1.8954    8.7977 H   0  0  0  0  0  0  0  0  0  0  0  0
    9.2495   -1.4924    8.8412 H   0  0  0  0  0  0  0  0  0  0  0  0
    7.7784   -4.6324    7.4516 H   0  0  0  0  0  0  0  0  0  0  0  0
    6.8483   -4.2445    8.8963 H   0  0  0  0  0  0  0  0  0  0  0  0
    9.0844   -6.3038    8.5495 H   0  0  0  0  0  0  0  0  0  0  0  0
    7.3630   -6.6266    8.7989 H   0  0  0  0  0  0  0  0  0  0  0  0
    8.8072   -6.9315   10.8607 H   0  0  0  0  0  0  0  0  0  0  0  0
    6.7941   -4.9327   11.0252 H   0  0  0  0  0  0  0  0  0  0  0  0
   10.4090   -5.1464   10.6024 H   0  0  0  0  0  0  0  0  0  0  0  0
    9.4628   -4.7914   12.0550 H   0  0  0  0  0  0  0  0  0  0  0  0
    9.8367   -2.8043   10.6368 H   0  0  0  0  0  0  0  0  0  0  0  0
    8.1208   -3.1352   10.8727 H   0  0  0  0  0  0  0  0  0  0  0  0
    9.8864    0.2921    7.2533 H   0  0  0  0  0  0  0  0  0  0  0  0
    9.2368    2.5264    6.4747 H   0  0  0  0  0  0  0  0  0  0  0  0
    7.2011    2.8769    5.1888 H   0  0  0  0  0  0  0  0  0  0  0  0
    7.0262    2.9755    1.4005 H   0  0  0  0  0  0  0  0  0  0  0  0
  1  2  1  0  0  0  0
  1 36  1  0  0  0  0
  1 37  1  0  0  0  0
  1 38  1  0  0  0  0
  2  3  1  0  0  0  0
  2 30  1  0  0  0  0
  3  4  2  0  0  0  0
  3 39  1  0  0  0  0
  4  5  1  0  0  0  0
  4 40  1  0  0  0  0
  5  6  1  0  0  0  0
  5 30  2  0  0  0  0
  6  7  2  0  0  0  0
  6 41  1  0  0  0  0
  7  8  1  0  0  0  0
  7 42  1  0  0  0  0
  8  9  1  0  0  0  0
  8 29  2  0  0  0  0
  9 10  1  0  0  0  0
  9 26  2  0  0  0  0
 10 11  1  0  0  0  0
 10 43  1  0  0  0  0
 11 12  1  0  0  0  0
 11 25  2  0  0  0  0
 12 13  1  0  0  0  0
 12 22  2  0  0  0  0
 13 14  1  0  0  0  0
 13 44  1  0  0  0  0
 13 45  1  0  0  0  0
 14 15  1  0  0  0  0
 14 46  1  0  0  0  0
 14 47  1  0  0  0  0
 15 16  1  0  0  0  0
 15 21  1  0  0  0  0
 16 17  1  0  0  0  0
 16 48  1  0  0  0  0
 16 49  1  0  0  0  0
 17 18  1  0  0  0  0
 17 50  1  0  0  0  0
 17 51  1  0  0  0  0
 18 19  1  0  0  0  0
 18 20  1  0  0  0  0
 18 52  1  0  0  0  0
 19 53  1  0  0  0  0
 20 21  1  0  0  0  0
 20 54  1  0  0  0  0
 20 55  1  0  0  0  0
 21 56  1  0  0  0  0
 21 57  1  0  0  0  0
 22 23  1  0  0  0  0
 22 58  1  0  0  0  0
 23 24  2  0  0  0  0
 23 59  1  0  0  0  0
 24 25  1  0  0  0  0
 24 60  1  0  0  0  0
 25 26  1  0  0  0  0
 26 27  1  0  0  0  0
 27 28  2  0  0  0  0
 27 34  1  0  0  0  0
 28 29  1  0  0  0  0
 28 31  1  0  0  0  0
 29 30  1  0  0  0  0
 31 32  2  0  0  0  0
 31 33  1  0  0  0  0
 33 34  1  0  0  0  0
 33 61  1  0  0  0  0
 34 35  2  0  0  0  0
M  END
$$$$
