
 OpenBabel01112422423D

 39 42  0  0  0  0  0  0  0  0999 V2000
    0.9628    0.1137   -0.2120 O   0  0  0  0  0  0  0  0  0  0  0  0
    2.3297    0.0528   -0.1643 C   0  0  0  0  0  0  0  0  0  0  0  0
    2.9707   -1.1869   -0.1876 C   0  0  0  0  0  0  0  0  0  0  0  0
    4.3792   -1.2362   -0.1129 C   0  0  0  0  0  0  0  0  0  0  0  0
    5.3189   -2.3084   -0.1031 C   0  0  0  0  0  0  0  0  0  0  0  0
    5.1899   -3.7115   -0.2244 C   0  0  0  0  0  0  0  0  0  0  0  0
    6.3191   -4.5320   -0.1211 C   0  0  0  0  0  0  0  0  0  0  0  0
    7.5532   -3.9625    0.1498 C   0  0  0  0  0  0  0  0  0  0  0  0
    8.6784   -4.7307    0.2930 O   0  0  0  0  0  0  0  0  0  0  0  0
    7.7042   -2.5795    0.2809 C   0  0  0  0  0  0  0  0  0  0  0  0
    8.9368   -2.0702    0.6054 O   0  0  0  0  0  0  0  0  0  0  0  0
    6.5862   -1.7569    0.0981 C   0  0  0  0  0  0  0  0  0  0  0  0
    6.4422   -0.3829    0.0450 N   0  0  0  0  0  0  0  0  0  0  0  0
    7.5510    0.5613   -0.1105 C   0  0  0  0  0  0  0  0  0  0  0  0
    7.9598    1.3057    1.1403 C   0  0  0  0  0  0  0  0  0  0  0  0
    7.5371    0.9523    2.4285 C   0  0  0  0  0  0  0  0  0  0  0  0
    7.8933    1.7328    3.5328 C   0  0  0  0  0  0  0  0  0  0  0  0
    8.6952    2.8572    3.3623 C   0  0  0  0  0  0  0  0  0  0  0  0
    9.1110    3.9507    4.8467 Br  0  0  0  0  0  0  0  0  0  0  0  0
    9.1794    3.1895    2.1012 C   0  0  0  0  0  0  0  0  0  0  0  0
    8.8172    2.4131    0.9982 C   0  0  0  0  0  0  0  0  0  0  0  0
    5.0988   -0.0401   -0.0153 C   0  0  0  0  0  0  0  0  0  0  0  0
    4.4594    1.2151   -0.0104 C   0  0  0  0  0  0  0  0  0  0  0  0
    3.0630    1.2315   -0.0823 C   0  0  0  0  0  0  0  0  0  0  0  0
    2.3947    2.4268   -0.0672 O   0  0  0  0  0  0  0  0  0  0  0  0
    0.6026   -0.7837   -0.1589 H   0  0  0  0  0  0  0  0  0  0  0  0
    2.4065   -2.1101   -0.2524 H   0  0  0  0  0  0  0  0  0  0  0  0
    4.2138   -4.1524   -0.4070 H   0  0  0  0  0  0  0  0  0  0  0  0
    6.2024   -5.6048   -0.2350 H   0  0  0  0  0  0  0  0  0  0  0  0
    8.4550   -5.6399    0.0286 H   0  0  0  0  0  0  0  0  0  0  0  0
    9.4839   -2.8618    0.7834 H   0  0  0  0  0  0  0  0  0  0  0  0
    7.2188    1.2881   -0.8636 H   0  0  0  0  0  0  0  0  0  0  0  0
    8.4051    0.0337   -0.5453 H   0  0  0  0  0  0  0  0  0  0  0  0
    6.9144    0.0757    2.5938 H   0  0  0  0  0  0  0  0  0  0  0  0
    7.5317    1.4550    4.5184 H   0  0  0  0  0  0  0  0  0  0  0  0
    9.8258    4.0515    1.9639 H   0  0  0  0  0  0  0  0  0  0  0  0
    9.2010    2.6868    0.0166 H   0  0  0  0  0  0  0  0  0  0  0  0
    5.0330    2.1314    0.0640 H   0  0  0  0  0  0  0  0  0  0  0  0
    3.0393    3.1470    0.0070 H   0  0  0  0  0  0  0  0  0  0  0  0
  1  2  1  0  0  0  0
  1 26  1  0  0  0  0
  2  3  1  0  0  0  0
  2 24  2  0  0  0  0
  3  4  2  0  0  0  0
  3 27  1  0  0  0  0
  4  5  1  0  0  0  0
  4 22  1  0  0  0  0
  5  6  1  0  0  0  0
  5 12  2  0  0  0  0
  6  7  2  0  0  0  0
  6 28  1  0  0  0  0
  7  8  1  0  0  0  0
  7 29  1  0  0  0  0
  8  9  1  0  0  0  0
  8 10  2  0  0  0  0
  9 30  1  0  0  0  0
 10 11  1  0  0  0  0
 10 12  1  0  0  0  0
 11 31  1  0  0  0  0
 12 13  1  0  0  0  0
 13 14  1  0  0  0  0
 13 22  1  0  0  0  0
 14 15  1  0  0  0  0
 14 32  1  0  0  0  0
 14 33  1  0  0  0  0
 15 16  1  0  0  0  0
 15 21  2  0  0  0  0
 16 17  2  0  0  0  0
 16 34  1  0  0  0  0
 17 18  1  0  0  0  0
 17 35  1  0  0  0  0
 18 19  1  0  0  0  0
 18 20  2  0  0  0  0
 20 21  1  0  0  0  0
 20 36  1  0  0  0  0
 21 37  1  0  0  0  0
 22 23  2  0  0  0  0
 23 24  1  0  0  0  0
 23 38  1  0  0  0  0
 24 25  1  0  0  0  0
 25 39  1  0  0  0  0
M  END
$$$$
