
 OpenBabel01112422573D

 54 57  0  0  0  0  0  0  0  0999 V2000
    1.0110    0.3541    0.2005 C   0  0  0  0  0  0  0  0  0  0  0  0
    2.4323    0.4686    0.1986 O   0  0  0  0  0  0  0  0  0  0  0  0
    3.0484    0.0468    1.3333 C   0  0  0  0  0  0  0  0  0  0  0  0
    2.5034   -0.4239    2.3181 O   0  0  0  0  0  0  0  0  0  0  0  0
    4.5162    0.2447    1.2119 C   0  0  0  0  0  0  0  0  0  0  0  0
    5.0879    0.7419    0.0332 C   0  0  0  0  0  0  0  0  0  0  0  0
    6.4619    0.9244   -0.0576 C   0  0  0  0  0  0  0  0  0  0  0  0
    7.2721    0.6423    1.0410 C   0  0  0  0  0  0  0  0  0  0  0  0
    6.7227    0.1988    2.2490 C   0  0  0  0  0  0  0  0  0  0  0  0
    7.5128    0.0156    3.4077 N   0  0  0  0  0  0  0  0  0  0  0  0
    8.7682    0.5782    3.5980 C   0  0  0  0  0  0  0  0  0  0  0  0
    9.3206    1.3449    2.8105 O   0  0  0  0  0  0  0  0  0  0  0  0
    9.4391    0.2199    4.9560 C   0  0  0  0  0  0  0  0  0  0  0  0
    8.5169    0.6721    6.0354 N   0  0  0  0  0  0  0  0  0  0  0  0
   10.7885    0.9758    5.0667 C   0  0  0  0  0  0  0  0  0  0  0  0
   11.8609    0.3660    4.1486 C   0  0  0  0  0  0  0  0  0  0  0  0
   11.9400   -1.0563    4.4771 N   0  0  0  0  0  0  0  0  0  0  0  0
   13.1696   -1.6680    4.2637 C   0  0  0  0  0  0  0  0  0  0  0  0
   14.0643   -1.0521    3.4405 N   0  0  0  0  0  0  0  0  0  0  0  0
   15.3211   -1.5177    3.3481 C   0  0  0  0  0  0  0  0  0  0  0  0
   15.8610   -2.5513    4.0003 N   0  0  0  0  0  0  0  0  0  0  0  0
   14.9633   -3.1449    4.7971 C   0  0  0  0  0  0  0  0  0  0  0  0
   15.2742   -4.1944    5.6101 N   0  0  0  0  0  0  0  0  0  0  0  0
   14.1684   -4.5846    6.3055 C   0  0  0  0  0  0  0  0  0  0  0  0
   13.1141   -3.7569    5.9529 C   0  0  0  0  0  0  0  0  0  0  0  0
   11.7514   -3.8819    6.5341 C   0  0  0  0  0  0  0  0  0  0  0  0
   13.6244   -2.8107    4.9809 C   0  0  0  0  0  0  0  0  0  0  0  0
   10.7319   -1.7844    4.1196 C   0  0  0  0  0  0  0  0  0  0  0  0
    9.6505   -1.3025    5.0935 C   0  0  0  0  0  0  0  0  0  0  0  0
    5.3450   -0.0428    2.3175 C   0  0  0  0  0  0  0  0  0  0  0  0
    0.6557    0.6156   -0.8005 H   0  0  0  0  0  0  0  0  0  0  0  0
    0.5787    1.0582    0.9170 H   0  0  0  0  0  0  0  0  0  0  0  0
    0.7014   -0.6714    0.4203 H   0  0  0  0  0  0  0  0  0  0  0  0
    4.4750    0.9985   -0.8270 H   0  0  0  0  0  0  0  0  0  0  0  0
    6.9084    1.3030   -0.9735 H   0  0  0  0  0  0  0  0  0  0  0  0
    8.3406    0.7863    0.9128 H   0  0  0  0  0  0  0  0  0  0  0  0
    7.0621   -0.3275    4.2521 H   0  0  0  0  0  0  0  0  0  0  0  0
    8.4168    1.6884    5.9600 H   0  0  0  0  0  0  0  0  0  0  0  0
    8.9819    0.5280    6.9348 H   0  0  0  0  0  0  0  0  0  0  0  0
   11.1582    0.9249    6.0999 H   0  0  0  0  0  0  0  0  0  0  0  0
   10.6691    2.0420    4.8313 H   0  0  0  0  0  0  0  0  0  0  0  0
   12.8026    0.8956    4.3472 H   0  0  0  0  0  0  0  0  0  0  0  0
   11.6305    0.5143    3.0851 H   0  0  0  0  0  0  0  0  0  0  0  0
   15.9810   -0.9800    2.6748 H   0  0  0  0  0  0  0  0  0  0  0  0
   16.2000   -4.5890    5.6835 H   0  0  0  0  0  0  0  0  0  0  0  0
   14.2188   -5.4067    7.0068 H   0  0  0  0  0  0  0  0  0  0  0  0
   11.7012   -4.7242    7.2336 H   0  0  0  0  0  0  0  0  0  0  0  0
   11.0049   -4.0943    5.7670 H   0  0  0  0  0  0  0  0  0  0  0  0
   11.4753   -2.9788    7.0828 H   0  0  0  0  0  0  0  0  0  0  0  0
   10.8504   -2.8660    4.1802 H   0  0  0  0  0  0  0  0  0  0  0  0
   10.4382   -1.5804    3.0818 H   0  0  0  0  0  0  0  0  0  0  0  0
    9.9787   -1.5207    6.1195 H   0  0  0  0  0  0  0  0  0  0  0  0
    8.7250   -1.8660    4.9354 H   0  0  0  0  0  0  0  0  0  0  0  0
    4.8940   -0.4200    3.2334 H   0  0  0  0  0  0  0  0  0  0  0  0
  1  2  1  0  0  0  0
  1 31  1  0  0  0  0
  1 32  1  0  0  0  0
  1 33  1  0  0  0  0
  2  3  1  0  0  0  0
  3  4  2  0  0  0  0
  3  5  1  0  0  0  0
  5  6  1  0  0  0  0
  5 30  2  0  0  0  0
  6  7  2  0  0  0  0
  6 34  1  0  0  0  0
  7  8  1  0  0  0  0
  7 35  1  0  0  0  0
  8  9  2  0  0  0  0
  8 36  1  0  0  0  0
  9 10  1  0  0  0  0
  9 30  1  0  0  0  0
 10 11  1  0  0  0  0
 10 37  1  0  0  0  0
 11 12  2  0  0  0  0
 11 13  1  0  0  0  0
 13 14  1  0  0  0  0
 13 15  1  0  0  0  0
 13 29  1  0  0  0  0
 14 38  1  0  0  0  0
 14 39  1  0  0  0  0
 15 16  1  0  0  0  0
 15 40  1  0  0  0  0
 15 41  1  0  0  0  0
 16 17  1  0  0  0  0
 16 42  1  0  0  0  0
 16 43  1  0  0  0  0
 17 18  1  0  0  0  0
 17 28  1  0  0  0  0
 18 19  1  0  0  0  0
 18 27  2  0  0  0  0
 19 20  2  0  0  0  0
 20 21  1  0  0  0  0
 20 44  1  0  0  0  0
 21 22  2  0  0  0  0
 22 23  1  0  0  0  0
 22 27  1  0  0  0  0
 23 24  1  0  0  0  0
 23 45  1  0  0  0  0
 24 25  2  0  0  0  0
 24 46  1  0  0  0  0
 25 26  1  0  0  0  0
 25 27  1  0  0  0  0
 26 47  1  0  0  0  0
 26 48  1  0  0  0  0
 26 49  1  0  0  0  0
 28 29  1  0  0  0  0
 28 50  1  0  0  0  0
 28 51  1  0  0  0  0
 29 52  1  0  0  0  0
 29 53  1  0  0  0  0
 30 54  1  0  0  0  0
M  END
$$$$
