
 OpenBabel01112423003D

 60 63  0  0  0  0  0  0  0  0999 V2000
    1.2935    0.9829   -0.0793 C   0  0  0  0  0  0  0  0  0  0  0  0
    2.7113    0.8061   -0.0382 O   0  0  0  0  0  0  0  0  0  0  0  0
    3.2341    0.5809    1.1922 C   0  0  0  0  0  0  0  0  0  0  0  0
    2.6080    0.5126    2.2357 O   0  0  0  0  0  0  0  0  0  0  0  0
    4.7136    0.4376    1.0994 C   0  0  0  0  0  0  0  0  0  0  0  0
    5.3647    0.5441   -0.1380 C   0  0  0  0  0  0  0  0  0  0  0  0
    6.7425    0.4119   -0.2074 C   0  0  0  0  0  0  0  0  0  0  0  0
    7.4738    0.2032    0.9570 C   0  0  0  0  0  0  0  0  0  0  0  0
    6.8565    0.1484    2.2167 C   0  0  0  0  0  0  0  0  0  0  0  0
    7.6142    0.0475    3.4153 N   0  0  0  0  0  0  0  0  0  0  0  0
    8.9097    0.5269    3.5215 C   0  0  0  0  0  0  0  0  0  0  0  0
    9.5019    1.0598    2.5849 O   0  0  0  0  0  0  0  0  0  0  0  0
    9.6483    0.3438    4.8636 C   0  0  0  0  0  0  0  0  0  0  0  0
    8.7051    0.4985    6.1059 C   0  0  0  0  0  0  0  0  0  0  0  0
    7.5568   -0.4306    6.3087 N   0  0  0  0  0  0  0  0  0  0  0  0
    7.9508   -1.8307    6.5171 C   0  0  0  0  0  0  0  0  0  0  0  0
    6.8117   -0.0077    7.5120 C   0  0  0  0  0  0  0  0  0  0  0  0
   10.6875    1.5298    4.9297 C   0  0  0  0  0  0  0  0  0  0  0  0
   11.9454    1.3442    4.0636 C   0  0  0  0  0  0  0  0  0  0  0  0
   12.4971    0.0335    4.3749 N   0  0  0  0  0  0  0  0  0  0  0  0
   13.8488   -0.1828    4.5595 C   0  0  0  0  0  0  0  0  0  0  0  0
   14.8353    0.6314    3.9771 C   0  0  0  0  0  0  0  0  0  0  0  0
   16.1877    0.4040    4.2218 C   0  0  0  0  0  0  0  0  0  0  0  0
   16.6949   -0.5716    5.0049 N   0  0  0  0  0  0  0  0  0  0  0  0
   15.7289   -1.3264    5.5577 C   0  0  0  0  0  0  0  0  0  0  0  0
   15.9235   -2.3751    6.4080 N   0  0  0  0  0  0  0  0  0  0  0  0
   14.7819   -2.9404    6.8524 N   0  0  0  0  0  0  0  0  0  0  0  0
   13.8364   -2.2116    6.2469 C   0  0  0  0  0  0  0  0  0  0  0  0
   14.3573   -1.2021    5.3990 C   0  0  0  0  0  0  0  0  0  0  0  0
   11.6294   -1.0739    4.0009 C   0  0  0  0  0  0  0  0  0  0  0  0
   10.3923   -1.0129    4.8886 C   0  0  0  0  0  0  0  0  0  0  0  0
    5.4609    0.2234    2.2773 C   0  0  0  0  0  0  0  0  0  0  0  0
    0.9901    1.0093   -1.1309 H   0  0  0  0  0  0  0  0  0  0  0  0
    1.0217    1.9357    0.3827 H   0  0  0  0  0  0  0  0  0  0  0  0
    0.7805    0.1487    0.4059 H   0  0  0  0  0  0  0  0  0  0  0  0
    4.8142    0.7302   -1.0563 H   0  0  0  0  0  0  0  0  0  0  0  0
    7.2583    0.4923   -1.1627 H   0  0  0  0  0  0  0  0  0  0  0  0
    8.5490    0.0890    0.8488 H   0  0  0  0  0  0  0  0  0  0  0  0
    7.1170   -0.1234    4.2916 H   0  0  0  0  0  0  0  0  0  0  0  0
    8.2794    1.5110    6.0475 H   0  0  0  0  0  0  0  0  0  0  0  0
    9.3279    0.4873    7.0133 H   0  0  0  0  0  0  0  0  0  0  0  0
    8.1263   -2.3224    5.5595 H   0  0  0  0  0  0  0  0  0  0  0  0
    7.1418   -2.4163    6.9705 H   0  0  0  0  0  0  0  0  0  0  0  0
    8.8301   -1.9335    7.1628 H   0  0  0  0  0  0  0  0  0  0  0  0
    6.4236    1.0087    7.3957 H   0  0  0  0  0  0  0  0  0  0  0  0
    7.4327   -0.0471    8.4161 H   0  0  0  0  0  0  0  0  0  0  0  0
    5.9419   -0.6565    7.6712 H   0  0  0  0  0  0  0  0  0  0  0  0
   11.0211    1.6630    5.9668 H   0  0  0  0  0  0  0  0  0  0  0  0
   10.2033    2.4728    4.6400 H   0  0  0  0  0  0  0  0  0  0  0  0
   12.6383    2.1585    4.3028 H   0  0  0  0  0  0  0  0  0  0  0  0
   11.7451    1.4201    2.9891 H   0  0  0  0  0  0  0  0  0  0  0  0
   14.5624    1.4405    3.3077 H   0  0  0  0  0  0  0  0  0  0  0  0
   16.9348    1.0464    3.7613 H   0  0  0  0  0  0  0  0  0  0  0  0
   16.8122   -2.7382    6.7268 H   0  0  0  0  0  0  0  0  0  0  0  0
   12.8000   -2.4434    6.4475 H   0  0  0  0  0  0  0  0  0  0  0  0
   12.1055   -2.0537    4.1177 H   0  0  0  0  0  0  0  0  0  0  0  0
   11.3476   -1.0036    2.9434 H   0  0  0  0  0  0  0  0  0  0  0  0
   10.7112   -1.2199    5.9192 H   0  0  0  0  0  0  0  0  0  0  0  0
    9.7460   -1.8278    4.5618 H   0  0  0  0  0  0  0  0  0  0  0  0
    4.9463    0.1705    3.2340 H   0  0  0  0  0  0  0  0  0  0  0  0
  1  2  1  0  0  0  0
  1 33  1  0  0  0  0
  1 34  1  0  0  0  0
  1 35  1  0  0  0  0
  2  3  1  0  0  0  0
  3  4  2  0  0  0  0
  3  5  1  0  0  0  0
  5  6  1  0  0  0  0
  5 32  2  0  0  0  0
  6  7  2  0  0  0  0
  6 36  1  0  0  0  0
  7  8  1  0  0  0  0
  7 37  1  0  0  0  0
  8  9  2  0  0  0  0
  8 38  1  0  0  0  0
  9 10  1  0  0  0  0
  9 32  1  0  0  0  0
 10 11  1  0  0  0  0
 10 39  1  0  0  0  0
 11 12  2  0  0  0  0
 11 13  1  0  0  0  0
 13 14  1  0  0  0  0
 13 18  1  0  0  0  0
 13 31  1  0  0  0  0
 14 15  1  0  0  0  0
 14 40  1  0  0  0  0
 14 41  1  0  0  0  0
 15 16  1  0  0  0  0
 15 17  1  0  0  0  0
 16 42  1  0  0  0  0
 16 43  1  0  0  0  0
 16 44  1  0  0  0  0
 17 45  1  0  0  0  0
 17 46  1  0  0  0  0
 17 47  1  0  0  0  0
 18 19  1  0  0  0  0
 18 48  1  0  0  0  0
 18 49  1  0  0  0  0
 19 20  1  0  0  0  0
 19 50  1  0  0  0  0
 19 51  1  0  0  0  0
 20 21  1  0  0  0  0
 20 30  1  0  0  0  0
 21 22  1  0  0  0  0
 21 29  2  0  0  0  0
 22 23  2  0  0  0  0
 22 52  1  0  0  0  0
 23 24  1  0  0  0  0
 23 53  1  0  0  0  0
 24 25  2  0  0  0  0
 25 26  1  0  0  0  0
 25 29  1  0  0  0  0
 26 27  1  0  0  0  0
 26 54  1  0  0  0  0
 27 28  2  0  0  0  0
 28 29  1  0  0  0  0
 28 55  1  0  0  0  0
 30 31  1  0  0  0  0
 30 56  1  0  0  0  0
 30 57  1  0  0  0  0
 31 58  1  0  0  0  0
 31 59  1  0  0  0  0
 32 60  1  0  0  0  0
M  END
$$$$
