
 OpenBabel01112422233D

 60 67  0  0  1  0  0  0  0  0999 V2000
    5.5261   -0.2426    0.4044 C   0  0  0  0  0  0  0  0  0  0  0  0
    4.3410   -0.9365    0.8668 N   0  0  0  0  0  0  0  0  0  0  0  0
    3.1975   -0.9121   -0.0601 C   0  0  1  0  0  0  0  0  0  0  0  0
    2.0816   -1.7110    0.6288 C   0  0  0  0  0  0  0  0  0  0  0  0
    0.9905   -2.0106   -0.3796 C   0  0  2  0  0  0  0  0  0  0  0  0
    1.1023   -1.2287   -1.5703 O   0  0  0  0  0  0  0  0  0  0  0  0
    1.3000    0.2034   -1.3988 C   0  0  2  0  0  0  0  0  0  0  0  0
    1.4889    0.6036   -2.8727 C   0  0  0  0  0  0  0  0  0  0  0  0
    2.5932    0.4682   -0.4949 C   0  0  1  0  0  0  0  0  0  0  0  0
    2.2004    1.2216    0.6726 O   0  0  0  0  0  0  0  0  0  0  0  0
    3.2048    1.9840    1.3149 C   0  0  0  0  0  0  0  0  0  0  0  0
    0.0929    0.8451   -0.8693 N   0  0  0  0  0  0  0  0  0  0  0  0
   -0.3032    2.2027   -0.7644 C   0  0  0  0  0  0  0  0  0  0  0  0
    0.0738    3.3557   -1.4672 C   0  0  0  0  0  0  0  0  0  0  0  0
   -0.3518    4.6061   -0.9963 C   0  0  0  0  0  0  0  0  0  0  0  0
   -1.0574    4.7280    0.1915 C   0  0  0  0  0  0  0  0  0  0  0  0
   -1.5988    3.5957    0.7954 C   0  0  0  0  0  0  0  0  0  0  0  0
   -1.3629    2.3295    0.2205 C   0  0  0  0  0  0  0  0  0  0  0  0
   -1.9689    1.0647    0.3098 C   0  0  0  0  0  0  0  0  0  0  0  0
   -3.3547    0.8273    0.3432 C   0  0  0  0  0  0  0  0  0  0  0  0
   -3.7183   -0.4533   -0.1549 C   0  0  0  0  0  0  0  0  0  0  0  0
   -2.6423   -1.3570   -0.3679 C   0  0  0  0  0  0  0  0  0  0  0  0
   -2.5581   -2.5548    0.4355 C   0  0  0  0  0  0  0  0  0  0  0  0
   -3.5070   -3.4612    0.9486 C   0  0  0  0  0  0  0  0  0  0  0  0
   -3.1233   -4.4088    1.9050 C   0  0  0  0  0  0  0  0  0  0  0  0
   -1.8250   -4.4375    2.4052 C   0  0  0  0  0  0  0  0  0  0  0  0
   -0.8272   -3.6290    1.8612 C   0  0  0  0  0  0  0  0  0  0  0  0
   -1.1730   -2.7519    0.8223 C   0  0  0  0  0  0  0  0  0  0  0  0
   -0.3608   -1.8996    0.0862 N   0  0  0  0  0  0  0  0  0  0  0  0
   -1.2858   -1.0419   -0.3906 C   0  0  0  0  0  0  0  0  0  0  0  0
   -0.9762    0.2901   -0.2813 C   0  0  0  0  0  0  0  0  0  0  0  0
   -5.0279   -0.3614   -0.6913 C   0  0  0  0  0  0  0  0  0  0  0  0
   -5.6375   -1.0298   -1.5160 O   0  0  0  0  0  0  0  0  0  0  0  0
   -5.4606    0.8553   -0.2118 N   0  0  0  0  0  0  0  0  0  0  0  0
   -4.5112    1.6528    0.3684 C   0  0  0  0  0  0  0  0  0  0  0  0
   -4.7057    2.8100    0.7208 O   0  0  0  0  0  0  0  0  0  0  0  0
    5.3383    0.8034    0.1612 H   0  0  0  0  0  0  0  0  0  0  0  0
    5.9581   -0.7348   -0.4711 H   0  0  0  0  0  0  0  0  0  0  0  0
    6.2773   -0.2586    1.1998 H   0  0  0  0  0  0  0  0  0  0  0  0
    4.0573   -0.6168    1.7921 H   0  0  0  0  0  0  0  0  0  0  0  0
    3.5150   -1.4517   -0.9632 H   0  0  0  0  0  0  0  0  0  0  0  0
    1.6837   -1.1616    1.4916 H   0  0  0  0  0  0  0  0  0  0  0  0
    2.4529   -2.6604    1.0335 H   0  0  0  0  0  0  0  0  0  0  0  0
    1.0994   -3.0538   -0.7050 H   0  0  0  0  0  0  0  0  0  0  0  0
    0.5835    0.3485   -3.4497 H   0  0  0  0  0  0  0  0  0  0  0  0
    1.6893    1.6617   -3.0194 H   0  0  0  0  0  0  0  0  0  0  0  0
    2.3059    0.0395   -3.3345 H   0  0  0  0  0  0  0  0  0  0  0  0
    3.3177    1.0505   -1.0789 H   0  0  0  0  0  0  0  0  0  0  0  0
    3.7933    1.3578    1.9857 H   0  0  0  0  0  0  0  0  0  0  0  0
    2.7144    2.7299    1.9447 H   0  0  0  0  0  0  0  0  0  0  0  0
    3.8517    2.5021    0.6020 H   0  0  0  0  0  0  0  0  0  0  0  0
    0.6176    3.3062   -2.3972 H   0  0  0  0  0  0  0  0  0  0  0  0
   -0.1078    5.5026   -1.5657 H   0  0  0  0  0  0  0  0  0  0  0  0
   -1.2529    5.7063    0.6157 H   0  0  0  0  0  0  0  0  0  0  0  0
   -2.2042    3.6923    1.6957 H   0  0  0  0  0  0  0  0  0  0  0  0
   -4.5338   -3.4305    0.5952 H   0  0  0  0  0  0  0  0  0  0  0  0
   -3.8600   -5.1109    2.2860 H   0  0  0  0  0  0  0  0  0  0  0  0
   -1.5780   -5.1089    3.2249 H   0  0  0  0  0  0  0  0  0  0  0  0
    0.1772   -3.6435    2.2756 H   0  0  0  0  0  0  0  0  0  0  0  0
   -6.3221    1.2590   -0.5385 H   0  0  0  0  0  0  0  0  0  0  0  0
  1  2  1  0  0  0  0
  1 37  1  0  0  0  0
  1 38  1  0  0  0  0
  1 39  1  0  0  0  0
  2  3  1  0  0  0  0
  2 40  1  0  0  0  0
  3  4  1  0  0  0  0
  3  9  1  0  0  0  0
  3 41  1  6  0  0  0
  4  5  1  0  0  0  0
  4 42  1  0  0  0  0
  4 43  1  0  0  0  0
  5  6  1  0  0  0  0
  5 29  1  0  0  0  0
  5 44  1  6  0  0  0
  6  7  1  0  0  0  0
  7  8  1  6  0  0  0
  7  9  1  0  0  0  0
  7 12  1  0  0  0  0
  8 45  1  0  0  0  0
  8 46  1  0  0  0  0
  8 47  1  0  0  0  0
  9 10  1  0  0  0  0
  9 48  1  6  0  0  0
 10 11  1  0  0  0  0
 11 49  1  0  0  0  0
 11 50  1  0  0  0  0
 11 51  1  0  0  0  0
 12 13  1  0  0  0  0
 12 31  1  0  0  0  0
 13 14  1  0  0  0  0
 13 18  2  0  0  0  0
 14 15  2  0  0  0  0
 14 52  1  0  0  0  0
 15 16  1  0  0  0  0
 15 53  1  0  0  0  0
 16 17  2  0  0  0  0
 16 54  1  0  0  0  0
 17 18  1  0  0  0  0
 17 55  1  0  0  0  0
 18 19  1  0  0  0  0
 19 20  1  0  0  0  0
 19 31  2  0  0  0  0
 20 21  2  0  0  0  0
 20 35  1  0  0  0  0
 21 22  1  0  0  0  0
 21 32  1  0  0  0  0
 22 23  1  0  0  0  0
 22 30  2  0  0  0  0
 23 24  1  0  0  0  0
 23 28  2  0  0  0  0
 24 25  2  0  0  0  0
 24 56  1  0  0  0  0
 25 26  1  0  0  0  0
 25 57  1  0  0  0  0
 26 27  2  0  0  0  0
 26 58  1  0  0  0  0
 27 28  1  0  0  0  0
 27 59  1  0  0  0  0
 28 29  1  0  0  0  0
 29 30  1  0  0  0  0
 30 31  1  0  0  0  0
 32 33  2  0  0  0  0
 32 34  1  0  0  0  0
 34 35  1  0  0  0  0
 34 60  1  0  0  0  0
 35 36  2  0  0  0  0
M  END
$$$$
