
 OpenBabel01112422383D

 40 43  0  0  0  0  0  0  0  0999 V2000
    8.2533    4.8025   -1.9616 N   0  0  0  0  0  0  0  0  0  0  0  0
    7.4963    3.9967   -1.6015 C   0  0  0  0  0  0  0  0  0  0  0  0
    6.5584    3.0101   -1.1559 C   0  0  0  0  0  0  0  0  0  0  0  0
    5.6954    2.3981   -2.0653 C   0  0  0  0  0  0  0  0  0  0  0  0
    4.7935    1.4255   -1.6257 C   0  0  0  0  0  0  0  0  0  0  0  0
    4.7476    1.0384   -0.2787 C   0  0  0  0  0  0  0  0  0  0  0  0
    3.8049   -0.0461    0.1954 C   0  0  0  0  0  0  0  0  0  0  0  0
    4.3991   -1.3861    0.1538 N   0  0  0  0  0  0  0  0  0  0  0  0
    5.1010   -1.9695    1.2011 C   0  0  0  0  0  0  0  0  0  0  0  0
    5.5107   -1.4473    2.4483 C   0  0  0  0  0  0  0  0  0  0  0  0
    6.2140   -2.2820    3.3126 C   0  0  0  0  0  0  0  0  0  0  0  0
    6.6596   -1.8442    4.5314 O   0  0  0  0  0  0  0  0  0  0  0  0
    6.4835   -3.5949    2.9702 C   0  0  0  0  0  0  0  0  0  0  0  0
    7.1631   -4.4006    3.8407 O   0  0  0  0  0  0  0  0  0  0  0  0
    6.0669   -4.1188    1.7522 C   0  0  0  0  0  0  0  0  0  0  0  0
    5.3629   -3.2978    0.8367 C   0  0  0  0  0  0  0  0  0  0  0  0
    4.7842   -3.5198   -0.4626 C   0  0  0  0  0  0  0  0  0  0  0  0
    4.6656   -4.6361   -1.3386 C   0  0  0  0  0  0  0  0  0  0  0  0
    5.3569   -6.3500   -0.8999 Br  0  0  0  0  0  0  0  0  0  0  0  0
    4.0004   -4.5271   -2.5685 C   0  0  0  0  0  0  0  0  0  0  0  0
    3.4606   -3.3130   -2.9374 C   0  0  0  0  0  0  0  0  0  0  0  0
    2.7916   -3.1457   -4.1184 O   0  0  0  0  0  0  0  0  0  0  0  0
    3.5533   -2.1981   -2.1063 C   0  0  0  0  0  0  0  0  0  0  0  0
    2.9602   -1.0355   -2.5375 O   0  0  0  0  0  0  0  0  0  0  0  0
    4.2074   -2.3027   -0.8676 C   0  0  0  0  0  0  0  0  0  0  0  0
    5.5987    1.6869    0.6253 C   0  0  0  0  0  0  0  0  0  0  0  0
    6.5021    2.6598    0.1929 C   0  0  0  0  0  0  0  0  0  0  0  0
    5.7174    2.6676   -3.1194 H   0  0  0  0  0  0  0  0  0  0  0  0
    4.1254    0.9800   -2.3575 H   0  0  0  0  0  0  0  0  0  0  0  0
    2.8740   -0.0495   -0.3786 H   0  0  0  0  0  0  0  0  0  0  0  0
    3.4941    0.1438    1.2297 H   0  0  0  0  0  0  0  0  0  0  0  0
    5.2804   -0.4309    2.7337 H   0  0  0  0  0  0  0  0  0  0  0  0
    6.4251   -0.9056    4.6239 H   0  0  0  0  0  0  0  0  0  0  0  0
    7.3516   -3.8266    4.6096 H   0  0  0  0  0  0  0  0  0  0  0  0
    6.2904   -5.1563    1.5328 H   0  0  0  0  0  0  0  0  0  0  0  0
    3.9055   -5.3954   -3.2121 H   0  0  0  0  0  0  0  0  0  0  0  0
    2.7604   -4.0039   -4.5789 H   0  0  0  0  0  0  0  0  0  0  0  0
    2.5981   -1.2624   -3.4190 H   0  0  0  0  0  0  0  0  0  0  0  0
    5.5703    1.4477    1.6825 H   0  0  0  0  0  0  0  0  0  0  0  0
    7.1590    3.1383    0.9160 H   0  0  0  0  0  0  0  0  0  0  0  0
  1  2  3  0  0  0  0
  2  3  1  0  0  0  0
  3  4  1  0  0  0  0
  3 27  2  0  0  0  0
  4  5  2  0  0  0  0
  4 28  1  0  0  0  0
  5  6  1  0  0  0  0
  5 29  1  0  0  0  0
  6  7  1  0  0  0  0
  6 26  2  0  0  0  0
  7  8  1  0  0  0  0
  7 30  1  0  0  0  0
  7 31  1  0  0  0  0
  8  9  1  0  0  0  0
  8 25  1  0  0  0  0
  9 10  1  0  0  0  0
  9 16  2  0  0  0  0
 10 11  2  0  0  0  0
 10 32  1  0  0  0  0
 11 12  1  0  0  0  0
 11 13  1  0  0  0  0
 12 33  1  0  0  0  0
 13 14  1  0  0  0  0
 13 15  2  0  0  0  0
 14 34  1  0  0  0  0
 15 16  1  0  0  0  0
 15 35  1  0  0  0  0
 16 17  1  0  0  0  0
 17 18  1  0  0  0  0
 17 25  2  0  0  0  0
 18 19  1  0  0  0  0
 18 20  2  0  0  0  0
 20 21  1  0  0  0  0
 20 36  1  0  0  0  0
 21 22  1  0  0  0  0
 21 23  2  0  0  0  0
 22 37  1  0  0  0  0
 23 24  1  0  0  0  0
 23 25  1  0  0  0  0
 24 38  1  0  0  0  0
 26 27  1  0  0  0  0
 26 39  1  0  0  0  0
 27 40  1  0  0  0  0
M  END
$$$$
