
 OpenBabel01112422543D

 50 54  0  0  1  0  0  0  0  0999 V2000
    2.8790    1.4357   -0.7948 N   0  0  0  0  0  0  0  0  0  0  0  0
    2.4583    0.1526   -0.2032 C   0  0  2  0  0  0  0  0  0  0  0  0
    0.9249    0.1200   -0.0368 C   0  0  0  0  0  0  0  0  0  0  0  0
    0.4779    1.1395    0.8738 O   0  0  0  0  0  0  0  0  0  0  0  0
   -0.8805    1.2088    1.0269 C   0  0  0  0  0  0  0  0  0  0  0  0
   -1.4349    2.4268    1.3867 C   0  0  0  0  0  0  0  0  0  0  0  0
   -2.7610    2.6298    1.5723 N   0  0  0  0  0  0  0  0  0  0  0  0
   -3.5698    1.5522    1.4064 C   0  0  0  0  0  0  0  0  0  0  0  0
   -3.1355    0.2699    1.0672 C   0  0  0  0  0  0  0  0  0  0  0  0
   -4.0474   -0.8847    0.9010 C   0  0  0  0  0  0  0  0  0  0  0  0
   -5.3404   -0.7314    0.3692 C   0  0  0  0  0  0  0  0  0  0  0  0
   -6.2120   -1.8146    0.1726 C   0  0  0  0  0  0  0  0  0  0  0  0
   -5.7390   -3.0823    0.5144 C   0  0  0  0  0  0  0  0  0  0  0  0
   -6.3130   -4.3238    0.4372 N   0  0  0  0  0  0  0  0  0  0  0  0
   -5.5186   -5.3255    0.8531 N   0  0  0  0  0  0  0  0  0  0  0  0
   -4.4002   -4.6971    1.2191 C   0  0  0  0  0  0  0  0  0  0  0  0
   -3.0688   -5.5671    1.8069 Cl  0  0  0  0  0  0  0  0  0  0  0  0
   -4.4730   -3.2964    1.0393 C   0  0  0  0  0  0  0  0  0  0  0  0
   -3.6268   -2.1900    1.2467 C   0  0  0  0  0  0  0  0  0  0  0  0
   -1.7513    0.1295    0.8811 C   0  0  0  0  0  0  0  0  0  0  0  0
    3.1410   -0.1465    1.1491 C   0  0  0  0  0  0  0  0  0  0  0  0
    4.6259   -0.3358    1.0573 C   0  0  0  0  0  0  0  0  0  0  0  0
    5.2852   -1.5144    0.7633 C   0  0  0  0  0  0  0  0  0  0  0  0
    6.6325   -1.2853    0.8431 N   0  0  0  0  0  0  0  0  0  0  0  0
    6.8728    0.0213    1.1968 C   0  0  0  0  0  0  0  0  0  0  0  0
    8.0832    0.6825    1.4364 C   0  0  0  0  0  0  0  0  0  0  0  0
    8.0251    2.0361    1.7801 C   0  0  0  0  0  0  0  0  0  0  0  0
    6.8057    2.7030    1.8635 C   0  0  0  0  0  0  0  0  0  0  0  0
    5.6046    2.0241    1.6295 C   0  0  0  0  0  0  0  0  0  0  0  0
    5.6335    0.6523    1.3033 C   0  0  0  0  0  0  0  0  0  0  0  0
    3.9003    1.4603   -0.8266 H   0  0  0  0  0  0  0  0  0  0  0  0
    2.6019    2.1896   -0.1652 H   0  0  0  0  0  0  0  0  0  0  0  0
    2.7264   -0.6369   -0.9165 H   0  0  0  0  0  0  0  0  0  0  0  0
    0.4433    0.2665   -1.0123 H   0  0  0  0  0  0  0  0  0  0  0  0
    0.6649   -0.8722    0.3494 H   0  0  0  0  0  0  0  0  0  0  0  0
   -0.8110    3.3053    1.5269 H   0  0  0  0  0  0  0  0  0  0  0  0
   -4.6219    1.7672    1.5762 H   0  0  0  0  0  0  0  0  0  0  0  0
   -5.6940    0.2545    0.0681 H   0  0  0  0  0  0  0  0  0  0  0  0
   -7.2018   -1.6636   -0.2449 H   0  0  0  0  0  0  0  0  0  0  0  0
   -7.2412   -4.5549    0.1030 H   0  0  0  0  0  0  0  0  0  0  0  0
   -2.6443   -2.3680    1.6758 H   0  0  0  0  0  0  0  0  0  0  0  0
   -1.3639   -0.8464    0.6173 H   0  0  0  0  0  0  0  0  0  0  0  0
    2.7128   -1.0687    1.5670 H   0  0  0  0  0  0  0  0  0  0  0  0
    2.9162    0.6429    1.8770 H   0  0  0  0  0  0  0  0  0  0  0  0
    4.9109   -2.5006    0.5224 H   0  0  0  0  0  0  0  0  0  0  0  0
    7.3526   -1.9770    0.6876 H   0  0  0  0  0  0  0  0  0  0  0  0
    9.0353    0.1665    1.3700 H   0  0  0  0  0  0  0  0  0  0  0  0
    8.9469    2.5754    1.9859 H   0  0  0  0  0  0  0  0  0  0  0  0
    6.7833    3.7586    2.1227 H   0  0  0  0  0  0  0  0  0  0  0  0
    4.6599    2.5535    1.7079 H   0  0  0  0  0  0  0  0  0  0  0  0
  1 31  1  0  0  0  0
  1 32  1  0  0  0  0
  2 21  1  0  0  0  0
  2  3  1  0  0  0  0
  2  1  1  0  0  0  0
  2 33  1  6  0  0  0
  3  4  1  0  0  0  0
  3 34  1  0  0  0  0
  3 35  1  0  0  0  0
  4  5  1  0  0  0  0
  5  6  1  0  0  0  0
  5 20  2  0  0  0  0
  6  7  2  0  0  0  0
  6 36  1  0  0  0  0
  7  8  1  0  0  0  0
  8  9  2  0  0  0  0
  8 37  1  0  0  0  0
  9 10  1  0  0  0  0
  9 20  1  0  0  0  0
 10 11  1  0  0  0  0
 10 19  2  0  0  0  0
 11 12  2  0  0  0  0
 11 38  1  0  0  0  0
 12 13  1  0  0  0  0
 12 39  1  0  0  0  0
 13 14  1  0  0  0  0
 13 18  2  0  0  0  0
 14 15  1  0  0  0  0
 14 40  1  0  0  0  0
 15 16  2  0  0  0  0
 16 17  1  0  0  0  0
 16 18  1  0  0  0  0
 18 19  1  0  0  0  0
 19 41  1  0  0  0  0
 20 42  1  0  0  0  0
 21 22  1  0  0  0  0
 21 43  1  0  0  0  0
 21 44  1  0  0  0  0
 22 23  2  0  0  0  0
 22 30  1  0  0  0  0
 23 24  1  0  0  0  0
 23 45  1  0  0  0  0
 24 25  1  0  0  0  0
 24 46  1  0  0  0  0
 25 26  1  0  0  0  0
 25 30  2  0  0  0  0
 26 27  2  0  0  0  0
 26 47  1  0  0  0  0
 27 28  1  0  0  0  0
 27 48  1  0  0  0  0
 28 29  2  0  0  0  0
 28 49  1  0  0  0  0
 29 30  1  0  0  0  0
 29 50  1  0  0  0  0
M  END
$$$$
