
 OpenBabel01112422543D

 37 40  0  0  0  0  0  0  0  0999 V2000
   -0.9383   -1.7501    2.1264 O   0  0  0  0  0  0  0  0  0  0  0  0
   -0.7008   -0.8803    1.1015 C   0  0  0  0  0  0  0  0  0  0  0  0
    0.1902   -1.2033    0.0836 C   0  0  0  0  0  0  0  0  0  0  0  0
    0.4049   -0.2885   -0.9420 C   0  0  0  0  0  0  0  0  0  0  0  0
   -0.2734    0.9371   -0.9365 C   0  0  0  0  0  0  0  0  0  0  0  0
   -1.1830    1.2843    0.0871 C   0  0  0  0  0  0  0  0  0  0  0  0
   -1.8943    2.5858    0.0707 C   0  0  0  0  0  0  0  0  0  0  0  0
   -2.7505    2.8619    1.0774 N   0  0  0  0  0  0  0  0  0  0  0  0
   -3.4511    4.0286    1.0927 C   0  0  0  0  0  0  0  0  0  0  0  0
   -4.3588    4.2449    2.1064 N   0  0  0  0  0  0  0  0  0  0  0  0
   -4.1582    3.6710    3.4385 C   0  0  0  0  0  0  0  0  0  0  0  0
   -5.4083    2.8970    3.8885 C   0  0  0  0  0  0  0  0  0  0  0  0
   -6.6011    3.6943    3.7786 O   0  0  0  0  0  0  0  0  0  0  0  0
   -6.7931    4.1012    2.4168 C   0  0  0  0  0  0  0  0  0  0  0  0
   -5.6228    4.9580    1.9142 C   0  0  0  0  0  0  0  0  0  0  0  0
   -3.1743    4.9373    0.0492 C   0  0  0  0  0  0  0  0  0  0  0  0
   -3.7303    6.5548   -0.2295 S   0  0  0  0  0  0  0  0  0  0  0  0
   -2.8739    6.6982   -1.6921 C   0  0  0  0  0  0  0  0  0  0  0  0
   -2.1227    5.5784   -1.9514 C   0  0  0  0  0  0  0  0  0  0  0  0
   -2.2771    4.5737   -0.9499 C   0  0  0  0  0  0  0  0  0  0  0  0
   -1.6325    3.3892   -0.9656 N   0  0  0  0  0  0  0  0  0  0  0  0
   -1.3784    0.3384    1.1099 C   0  0  0  0  0  0  0  0  0  0  0  0
   -0.4012   -2.5490    1.9893 H   0  0  0  0  0  0  0  0  0  0  0  0
    0.7192   -2.1505    0.0706 H   0  0  0  0  0  0  0  0  0  0  0  0
    1.0954   -0.5184   -1.7482 H   0  0  0  0  0  0  0  0  0  0  0  0
   -0.0824    1.6314   -1.7544 H   0  0  0  0  0  0  0  0  0  0  0  0
   -3.9970    4.5062    4.1339 H   0  0  0  0  0  0  0  0  0  0  0  0
   -3.2776    3.0239    3.5090 H   0  0  0  0  0  0  0  0  0  0  0  0
   -5.3087    2.6079    4.9396 H   0  0  0  0  0  0  0  0  0  0  0  0
   -5.5382    1.9815    3.2994 H   0  0  0  0  0  0  0  0  0  0  0  0
   -7.7212    4.6792    2.3635 H   0  0  0  0  0  0  0  0  0  0  0  0
   -6.9198    3.2099    1.7899 H   0  0  0  0  0  0  0  0  0  0  0  0
   -5.5808    5.8958    2.4803 H   0  0  0  0  0  0  0  0  0  0  0  0
   -5.8297    5.1881    0.8662 H   0  0  0  0  0  0  0  0  0  0  0  0
   -2.9470    7.6014   -2.2814 H   0  0  0  0  0  0  0  0  0  0  0  0
   -1.4825    5.4723   -2.8173 H   0  0  0  0  0  0  0  0  0  0  0  0
   -2.0677    0.5483    1.9249 H   0  0  0  0  0  0  0  0  0  0  0  0
  1  2  1  0  0  0  0
  1 23  1  0  0  0  0
  2  3  1  0  0  0  0
  2 22  2  0  0  0  0
  3  4  2  0  0  0  0
  3 24  1  0  0  0  0
  4  5  1  0  0  0  0
  4 25  1  0  0  0  0
  5  6  2  0  0  0  0
  5 26  1  0  0  0  0
  6  7  1  0  0  0  0
  6 22  1  0  0  0  0
  7  8  1  0  0  0  0
  7 21  2  0  0  0  0
  8  9  2  0  0  0  0
  9 10  1  0  0  0  0
  9 16  1  0  0  0  0
 10 11  1  0  0  0  0
 10 15  1  0  0  0  0
 11 12  1  0  0  0  0
 11 27  1  0  0  0  0
 11 28  1  0  0  0  0
 12 13  1  0  0  0  0
 12 29  1  0  0  0  0
 12 30  1  0  0  0  0
 13 14  1  0  0  0  0
 14 15  1  0  0  0  0
 14 31  1  0  0  0  0
 14 32  1  0  0  0  0
 15 33  1  0  0  0  0
 15 34  1  0  0  0  0
 16 17  1  0  0  0  0
 16 20  2  0  0  0  0
 17 18  1  0  0  0  0
 18 19  2  0  0  0  0
 18 35  1  0  0  0  0
 19 20  1  0  0  0  0
 19 36  1  0  0  0  0
 20 21  1  0  0  0  0
 22 37  1  0  0  0  0
M  END
$$$$
