
 OpenBabel01112422453D

 26 28  0  0  0  0  0  0  0  0999 V2000
    0.2016   -1.3865   -2.2464 N   0  0  0  0  0  0  0  0  0  0  0  0
    0.3968   -0.7026   -1.0643 C   0  0  0  0  0  0  0  0  0  0  0  0
   -0.0172   -1.2922    0.0600 N   0  0  0  0  0  0  0  0  0  0  0  0
    0.2030   -0.6190    1.2020 C   0  0  0  0  0  0  0  0  0  0  0  0
    0.8020    0.6140    1.2514 C   0  0  0  0  0  0  0  0  0  0  0  0
    1.1706    1.1478    0.0351 C   0  0  0  0  0  0  0  0  0  0  0  0
    1.8514    2.4371   -0.0577 C   0  0  0  0  0  0  0  0  0  0  0  0
    1.7237    3.4523    0.8749 C   0  0  0  0  0  0  0  0  0  0  0  0
    2.5207    4.4978    0.4890 N   0  0  0  0  0  0  0  0  0  0  0  0
    3.1660    4.1967   -0.6866 C   0  0  0  0  0  0  0  0  0  0  0  0
    4.0726    4.9590   -1.4361 C   0  0  0  0  0  0  0  0  0  0  0  0
    4.5755    4.3882   -2.6086 C   0  0  0  0  0  0  0  0  0  0  0  0
    5.8015    5.3755   -3.6605 Br  0  0  0  0  0  0  0  0  0  0  0  0
    4.1967    3.1137   -3.0172 C   0  0  0  0  0  0  0  0  0  0  0  0
    3.2931    2.3685   -2.2510 C   0  0  0  0  0  0  0  0  0  0  0  0
    2.7598    2.9145   -1.0622 C   0  0  0  0  0  0  0  0  0  0  0  0
    0.9630    0.5022   -1.1319 N   0  0  0  0  0  0  0  0  0  0  0  0
   -0.5437   -2.0581   -2.1340 H   0  0  0  0  0  0  0  0  0  0  0  0
    0.1338   -0.7344   -3.0144 H   0  0  0  0  0  0  0  0  0  0  0  0
   -0.1171   -1.1251    2.1082 H   0  0  0  0  0  0  0  0  0  0  0  0
    0.9867    1.1090    2.1939 H   0  0  0  0  0  0  0  0  0  0  0  0
    1.1354    3.5305    1.7790 H   0  0  0  0  0  0  0  0  0  0  0  0
    2.6251    5.3682    0.9926 H   0  0  0  0  0  0  0  0  0  0  0  0
    4.3722    5.9511   -1.1168 H   0  0  0  0  0  0  0  0  0  0  0  0
    4.5961    2.6811   -3.9305 H   0  0  0  0  0  0  0  0  0  0  0  0
    3.0035    1.3711   -2.5719 H   0  0  0  0  0  0  0  0  0  0  0  0
  1  2  1  0  0  0  0
  1 18  1  0  0  0  0
  1 19  1  0  0  0  0
  2  3  1  0  0  0  0
  2 17  2  0  0  0  0
  3  4  2  0  0  0  0
  4  5  1  0  0  0  0
  4 20  1  0  0  0  0
  5  6  2  0  0  0  0
  5 21  1  0  0  0  0
  6  7  1  0  0  0  0
  6 17  1  0  0  0  0
  7  8  2  0  0  0  0
  7 16  1  0  0  0  0
  8  9  1  0  0  0  0
  8 22  1  0  0  0  0
  9 10  1  0  0  0  0
  9 23  1  0  0  0  0
 10 11  1  0  0  0  0
 10 16  2  0  0  0  0
 11 12  2  0  0  0  0
 11 24  1  0  0  0  0
 12 13  1  0  0  0  0
 12 14  1  0  0  0  0
 14 15  2  0  0  0  0
 14 25  1  0  0  0  0
 15 16  1  0  0  0  0
 15 26  1  0  0  0  0
M  END
$$$$
