
 OpenBabel01112422153D

 37 39  0  0  1  0  0  0  0  0999 V2000
   -0.0279   -0.0233   -1.4693 C   0  0  0  0  0  0  0  0  0  0  0  0
    0.6407    0.6927   -0.2878 C   0  0  1  0  0  0  0  0  0  0  0  0
    1.5638    1.8416   -0.7655 C   0  0  0  0  0  0  0  0  0  0  0  0
    0.8436    2.9728   -1.3811 N   0  0  0  0  0  0  0  0  0  0  0  0
   -0.1998    3.4653   -0.4650 C   0  0  0  0  0  0  0  0  0  0  0  0
   -1.1482    2.3738    0.0766 C   0  0  0  0  0  0  0  0  0  0  0  0
   -0.4092    1.2154    0.6764 N   0  0  0  0  0  0  0  0  0  0  0  0
    0.1950    1.4537    2.2755 S   0  0  0  0  0  0  0  0  0  0  0  0
    0.8983    0.2407    2.6455 O   0  0  0  0  0  0  0  0  0  0  0  0
    0.8869    2.7198    2.3389 O   0  0  0  0  0  0  0  0  0  0  0  0
   -1.2762    1.5295    3.3014 C   0  0  0  0  0  0  0  0  0  0  0  0
   -1.7169    0.2898    3.8036 C   0  0  0  0  0  0  0  0  0  0  0  0
   -2.8029    0.2190    4.6661 C   0  0  0  0  0  0  0  0  0  0  0  0
   -3.4620    1.3842    5.0349 C   0  0  0  0  0  0  0  0  0  0  0  0
   -3.0289    2.6348    4.5670 C   0  0  0  0  0  0  0  0  0  0  0  0
   -3.6953    3.7965    4.9703 C   0  0  0  0  0  0  0  0  0  0  0  0
   -3.3561    5.0476    4.6005 N   0  0  0  0  0  0  0  0  0  0  0  0
   -2.2884    5.1565    3.7945 C   0  0  0  0  0  0  0  0  0  0  0  0
   -1.5595    4.0707    3.3249 C   0  0  0  0  0  0  0  0  0  0  0  0
   -1.9135    2.7488    3.6983 C   0  0  0  0  0  0  0  0  0  0  0  0
    0.7313   -0.4717   -2.1203 H   0  0  0  0  0  0  0  0  0  0  0  0
   -0.6266    0.6486   -2.0922 H   0  0  0  0  0  0  0  0  0  0  0  0
   -0.6893   -0.8228   -1.1206 H   0  0  0  0  0  0  0  0  0  0  0  0
    1.2499   -0.0648    0.2184 H   0  0  0  0  0  0  0  0  0  0  0  0
    2.2805    1.4509   -1.4977 H   0  0  0  0  0  0  0  0  0  0  0  0
    2.1645    2.2126    0.0727 H   0  0  0  0  0  0  0  0  0  0  0  0
    0.4056    2.6554   -2.2442 H   0  0  0  0  0  0  0  0  0  0  0  0
   -0.7965    4.2143   -0.9974 H   0  0  0  0  0  0  0  0  0  0  0  0
    0.2798    4.0024    0.3581 H   0  0  0  0  0  0  0  0  0  0  0  0
   -1.7727    1.9931   -0.7408 H   0  0  0  0  0  0  0  0  0  0  0  0
   -1.8542    2.7953    0.7945 H   0  0  0  0  0  0  0  0  0  0  0  0
   -1.1990   -0.6316    3.5409 H   0  0  0  0  0  0  0  0  0  0  0  0
   -3.1266   -0.7411    5.0603 H   0  0  0  0  0  0  0  0  0  0  0  0
   -4.3124    1.3119    5.7109 H   0  0  0  0  0  0  0  0  0  0  0  0
   -4.5546    3.7489    5.6352 H   0  0  0  0  0  0  0  0  0  0  0  0
   -2.0156    6.1723    3.5204 H   0  0  0  0  0  0  0  0  0  0  0  0
   -0.7190    4.2907    2.6784 H   0  0  0  0  0  0  0  0  0  0  0  0
  1  2  1  0  0  0  0
  1 21  1  0  0  0  0
  1 22  1  0  0  0  0
  1 23  1  0  0  0  0
  2  3  1  0  0  0  0
  2  7  1  0  0  0  0
  2 24  1  1  0  0  0
  3  4  1  0  0  0  0
  3 25  1  0  0  0  0
  3 26  1  0  0  0  0
  4  5  1  0  0  0  0
  4 27  1  0  0  0  0
  5  6  1  0  0  0  0
  5 28  1  0  0  0  0
  5 29  1  0  0  0  0
  6  7  1  0  0  0  0
  6 30  1  0  0  0  0
  6 31  1  0  0  0  0
  7  8  1  0  0  0  0
  8  9  2  0  0  0  0
  8 10  2  0  0  0  0
  8 11  1  0  0  0  0
 11 12  1  0  0  0  0
 11 20  2  0  0  0  0
 12 13  2  0  0  0  0
 12 32  1  0  0  0  0
 13 14  1  0  0  0  0
 13 33  1  0  0  0  0
 14 15  2  0  0  0  0
 14 34  1  0  0  0  0
 15 16  1  0  0  0  0
 15 20  1  0  0  0  0
 16 17  2  0  0  0  0
 16 35  1  0  0  0  0
 17 18  1  0  0  0  0
 18 19  2  0  0  0  0
 18 36  1  0  0  0  0
 19 20  1  0  0  0  0
 19 37  1  0  0  0  0
M  END
$$$$
