
 OpenBabel01112422253D

 68 75  0  0  1  0  0  0  0  0999 V2000
    5.8083   -0.7151   -0.9249 C   0  0  0  0  0  0  0  0  0  0  0  0
    5.2723   -0.2126    0.3225 N   0  0  0  0  0  0  0  0  0  0  0  0
    4.3783   -0.9199    1.0863 C   0  0  0  0  0  0  0  0  0  0  0  0
    4.5342   -0.7476    2.7528 S   0  0  0  0  0  0  0  0  0  0  0  0
    3.4116   -1.6926    0.4085 N   0  0  0  0  0  0  0  0  0  0  0  0
    2.9362   -2.8862    1.0982 C   0  0  0  0  0  0  0  0  0  0  0  0
    2.3873   -0.9257   -0.3652 C   0  0  1  0  0  0  0  0  0  0  0  0
    1.4716   -1.5778   -1.5054 C   0  0  0  0  0  0  0  0  0  0  0  0
    0.2446   -0.5749   -1.9066 C   0  0  2  0  0  0  0  0  0  0  0  0
    0.9882    0.7232   -1.7595 O   0  0  0  0  0  0  0  0  0  0  0  0
    1.1015    1.0973   -0.3648 C   0  0  2  0  0  0  0  0  0  0  0  0
    2.1978    2.0864    0.1534 C   0  0  0  0  0  0  0  0  0  0  0  0
    1.3686   -0.1965    0.5425 C   0  0  1  0  0  0  0  0  0  0  0  0
    0.3829   -1.2215    0.7429 O   0  0  0  0  0  0  0  0  0  0  0  0
   -0.4797   -1.0982    1.8442 C   0  0  0  0  0  0  0  0  0  0  0  0
   -0.0470    1.9081   -0.2690 N   0  0  0  0  0  0  0  0  0  0  0  0
   -0.3843    3.2255   -0.4998 C   0  0  0  0  0  0  0  0  0  0  0  0
    0.2040    4.1436   -1.3956 C   0  0  0  0  0  0  0  0  0  0  0  0
   -0.4282    5.3728   -1.5454 C   0  0  0  0  0  0  0  0  0  0  0  0
   -1.5699    5.7005   -0.7930 C   0  0  0  0  0  0  0  0  0  0  0  0
   -2.1448    4.7805    0.0862 C   0  0  0  0  0  0  0  0  0  0  0  0
   -1.5971    3.5257    0.2535 C   0  0  0  0  0  0  0  0  0  0  0  0
   -1.9573    2.2921    0.9294 C   0  0  0  0  0  0  0  0  0  0  0  0
   -3.2775    2.0773    1.3510 C   0  0  0  0  0  0  0  0  0  0  0  0
   -4.0172    1.2160    0.5280 C   0  0  0  0  0  0  0  0  0  0  0  0
   -3.1781    0.4602   -0.3332 C   0  0  0  0  0  0  0  0  0  0  0  0
   -3.1787   -0.9287   -0.1824 C   0  0  0  0  0  0  0  0  0  0  0  0
   -3.8313   -1.8098    0.6765 C   0  0  0  0  0  0  0  0  0  0  0  0
   -4.6102   -2.6651   -0.0331 C   0  0  0  0  0  0  0  0  0  0  0  0
   -4.3228   -2.8452   -1.4022 C   0  0  0  0  0  0  0  0  0  0  0  0
   -3.1035   -2.3519   -2.0175 C   0  0  0  0  0  0  0  0  0  0  0  0
   -2.3438   -1.4216   -1.2670 C   0  0  0  0  0  0  0  0  0  0  0  0
   -1.1767   -0.5387   -1.3390 N   0  0  0  0  0  0  0  0  0  0  0  0
   -1.8237    0.5157   -0.6764 C   0  0  0  0  0  0  0  0  0  0  0  0
   -1.2060    1.4547    0.1228 C   0  0  0  0  0  0  0  0  0  0  0  0
   -5.2745    0.9489    1.1539 C   0  0  0  0  0  0  0  0  0  0  0  0
   -6.3644    0.5765    0.7449 O   0  0  0  0  0  0  0  0  0  0  0  0
   -5.0292    1.2998    2.4802 N   0  0  0  0  0  0  0  0  0  0  0  0
   -3.6954    1.7962    2.7350 C   0  0  0  0  0  0  0  0  0  0  0  0
    5.0046   -1.0089   -1.6050 H   0  0  0  0  0  0  0  0  0  0  0  0
    6.4205    0.0660   -1.3799 H   0  0  0  0  0  0  0  0  0  0  0  0
    6.4265   -1.5915   -0.7063 H   0  0  0  0  0  0  0  0  0  0  0  0
    5.9509    0.2766    0.9054 H   0  0  0  0  0  0  0  0  0  0  0  0
    2.4799   -3.5612    0.3832 H   0  0  0  0  0  0  0  0  0  0  0  0
    2.2241   -2.6231    1.8839 H   0  0  0  0  0  0  0  0  0  0  0  0
    3.7887   -3.3978    1.5645 H   0  0  0  0  0  0  0  0  0  0  0  0
    3.0096   -0.1784   -0.8753 H   0  0  0  0  0  0  0  0  0  0  0  0
    2.1375   -1.6262   -2.3854 H   0  0  0  0  0  0  0  0  0  0  0  0
    1.1494   -2.5996   -1.3028 H   0  0  0  0  0  0  0  0  0  0  0  0
    0.0715   -0.6949   -2.9839 H   0  0  0  0  0  0  0  0  0  0  0  0
    2.6722    2.6881   -0.6150 H   0  0  0  0  0  0  0  0  0  0  0  0
    1.7505    2.7646    0.9091 H   0  0  0  0  0  0  0  0  0  0  0  0
    2.9767    1.6081    0.7569 H   0  0  0  0  0  0  0  0  0  0  0  0
    1.7660    0.0789    1.5219 H   0  0  0  0  0  0  0  0  0  0  0  0
   -1.4440   -0.7751    1.4935 H   0  0  0  0  0  0  0  0  0  0  0  0
   -0.6488   -2.0886    2.2730 H   0  0  0  0  0  0  0  0  0  0  0  0
   -0.1377   -0.3836    2.5876 H   0  0  0  0  0  0  0  0  0  0  0  0
    1.0530    3.8594   -2.0206 H   0  0  0  0  0  0  0  0  0  0  0  0
   -0.0070    6.0875   -2.2601 H   0  0  0  0  0  0  0  0  0  0  0  0
   -2.0264    6.6635   -0.9556 H   0  0  0  0  0  0  0  0  0  0  0  0
   -3.0788    5.0478    0.5966 H   0  0  0  0  0  0  0  0  0  0  0  0
   -4.0607   -1.5474    1.7045 H   0  0  0  0  0  0  0  0  0  0  0  0
   -5.5052   -3.0505    0.4450 H   0  0  0  0  0  0  0  0  0  0  0  0
   -5.1113   -3.3109   -1.9943 H   0  0  0  0  0  0  0  0  0  0  0  0
   -2.9592   -2.5134   -3.0774 H   0  0  0  0  0  0  0  0  0  0  0  0
   -5.7716    1.2518    3.1585 H   0  0  0  0  0  0  0  0  0  0  0  0
   -3.6691    2.6345    3.4201 H   0  0  0  0  0  0  0  0  0  0  0  0
   -3.1029    0.9437    3.1168 H   0  0  0  0  0  0  0  0  0  0  0  0
  1  2  1  0  0  0  0
  1 40  1  0  0  0  0
  1 41  1  0  0  0  0
  1 42  1  0  0  0  0
  2  3  1  0  0  0  0
  2 43  1  0  0  0  0
  3  4  2  0  0  0  0
  3  5  1  0  0  0  0
  5  6  1  0  0  0  0
  6 44  1  0  0  0  0
  6 45  1  0  0  0  0
  6 46  1  0  0  0  0
  7  8  1  0  0  0  0
  7 13  1  0  0  0  0
  7  5  1  0  0  0  0
  7 47  1  6  0  0  0
  8  9  1  0  0  0  0
  8 48  1  0  0  0  0
  8 49  1  0  0  0  0
  9 10  1  0  0  0  0
  9 33  1  0  0  0  0
  9 50  1  6  0  0  0
 10 11  1  0  0  0  0
 11 12  1  1  0  0  0
 11 13  1  0  0  0  0
 11 16  1  0  0  0  0
 12 51  1  0  0  0  0
 12 52  1  0  0  0  0
 12 53  1  0  0  0  0
 13 14  1  0  0  0  0
 13 54  1  1  0  0  0
 14 15  1  0  0  0  0
 15 55  1  0  0  0  0
 15 56  1  0  0  0  0
 15 57  1  0  0  0  0
 16 17  1  0  0  0  0
 16 35  1  0  0  0  0
 17 18  1  0  0  0  0
 17 22  2  0  0  0  0
 18 19  2  0  0  0  0
 18 58  1  0  0  0  0
 19 20  1  0  0  0  0
 19 59  1  0  0  0  0
 20 21  2  0  0  0  0
 20 60  1  0  0  0  0
 21 22  1  0  0  0  0
 21 61  1  0  0  0  0
 22 23  1  0  0  0  0
 23 24  1  0  0  0  0
 23 35  2  0  0  0  0
 24 25  2  0  0  0  0
 24 39  1  0  0  0  0
 25 26  1  0  0  0  0
 25 36  1  0  0  0  0
 26 27  1  0  0  0  0
 26 34  2  0  0  0  0
 27 28  1  0  0  0  0
 27 32  2  0  0  0  0
 28 29  2  0  0  0  0
 28 62  1  0  0  0  0
 29 30  1  0  0  0  0
 29 63  1  0  0  0  0
 30 31  2  0  0  0  0
 30 64  1  0  0  0  0
 31 32  1  0  0  0  0
 31 65  1  0  0  0  0
 32 33  1  0  0  0  0
 33 34  1  0  0  0  0
 34 35  1  0  0  0  0
 36 37  2  0  0  0  0
 36 38  1  0  0  0  0
 38 39  1  0  0  0  0
 38 66  1  0  0  0  0
 39 67  1  0  0  0  0
 39 68  1  0  0  0  0
M  END
$$$$
