
 OpenBabel01112422363D

 53 59  0  0  0  0  0  0  0  0999 V2000
    1.6686    0.4555    0.4319 C   0  0  0  0  0  0  0  0  0  0  0  0
    2.3760   -0.7984    0.3292 N   0  0  0  0  0  0  0  0  0  0  0  0
    1.9275   -1.7205   -0.5970 C   0  0  0  0  0  0  0  0  0  0  0  0
    1.8189   -2.8953    0.0983 C   0  0  0  0  0  0  0  0  0  0  0  0
    2.7599   -2.7927    1.1504 C   0  0  0  0  0  0  0  0  0  0  0  0
    3.3282   -3.7975    1.9480 C   0  0  0  0  0  0  0  0  0  0  0  0
    4.5197   -3.5217    2.5907 C   0  0  0  0  0  0  0  0  0  0  0  0
    5.0294   -2.2257    2.5544 C   0  0  0  0  0  0  0  0  0  0  0  0
    6.3244   -1.9921    3.0421 C   0  0  0  0  0  0  0  0  0  0  0  0
    7.1807   -2.7808    3.7556 N   0  0  0  0  0  0  0  0  0  0  0  0
    8.0630   -1.9779    4.4440 C   0  0  0  0  0  0  0  0  0  0  0  0
    8.8296   -2.3109    5.5530 C   0  0  0  0  0  0  0  0  0  0  0  0
    9.6474   -1.3211    6.1017 C   0  0  0  0  0  0  0  0  0  0  0  0
   10.4654   -1.5398    7.1760 O   0  0  0  0  0  0  0  0  0  0  0  0
   10.7672   -2.9178    7.3937 C   0  0  0  0  0  0  0  0  0  0  0  0
   12.0011   -3.0180    8.2358 C   0  0  0  0  0  0  0  0  0  0  0  0
   11.9645   -2.6359    9.5820 C   0  0  0  0  0  0  0  0  0  0  0  0
   13.1140   -2.7345   10.3620 C   0  0  0  0  0  0  0  0  0  0  0  0
   14.2970   -3.2106    9.8035 C   0  0  0  0  0  0  0  0  0  0  0  0
   14.3408   -3.5854    8.4609 C   0  0  0  0  0  0  0  0  0  0  0  0
   13.1975   -3.4864    7.6776 C   0  0  0  0  0  0  0  0  0  0  0  0
    9.6587   -0.0380    5.5665 C   0  0  0  0  0  0  0  0  0  0  0  0
    8.8779    0.2842    4.4521 C   0  0  0  0  0  0  0  0  0  0  0  0
    8.0377   -0.6962    3.8788 C   0  0  0  0  0  0  0  0  0  0  0  0
    7.0012   -0.8043    2.9427 C   0  0  0  0  0  0  0  0  0  0  0  0
    6.3109    0.3430    2.4627 C   0  0  0  0  0  0  0  0  0  0  0  0
    4.9026    0.1392    2.3589 C   0  0  0  0  0  0  0  0  0  0  0  0
    4.3000   -1.1051    2.0786 C   0  0  0  0  0  0  0  0  0  0  0  0
    3.1925   -1.4460    1.2494 C   0  0  0  0  0  0  0  0  0  0  0  0
    4.4145    1.1922    3.2444 C   0  0  0  0  0  0  0  0  0  0  0  0
    3.5269    1.2069    4.0900 O   0  0  0  0  0  0  0  0  0  0  0  0
    5.4102    2.1543    3.2086 N   0  0  0  0  0  0  0  0  0  0  0  0
    6.6031    1.7240    2.6988 C   0  0  0  0  0  0  0  0  0  0  0  0
    7.5919    2.4105    2.5849 O   0  0  0  0  0  0  0  0  0  0  0  0
    2.2099    1.2370   -0.1031 H   0  0  0  0  0  0  0  0  0  0  0  0
    1.4954    0.6922    1.4853 H   0  0  0  0  0  0  0  0  0  0  0  0
    0.6879    0.3171   -0.0425 H   0  0  0  0  0  0  0  0  0  0  0  0
    1.5377   -1.4209   -1.5615 H   0  0  0  0  0  0  0  0  0  0  0  0
    1.3033   -3.7877   -0.2272 H   0  0  0  0  0  0  0  0  0  0  0  0
    2.9540   -4.8176    1.8983 H   0  0  0  0  0  0  0  0  0  0  0  0
    5.0561   -4.3504    3.0537 H   0  0  0  0  0  0  0  0  0  0  0  0
    7.0020   -3.7428    3.9941 H   0  0  0  0  0  0  0  0  0  0  0  0
    8.7479   -3.3067    5.9721 H   0  0  0  0  0  0  0  0  0  0  0  0
   10.9517   -3.4387    6.4445 H   0  0  0  0  0  0  0  0  0  0  0  0
    9.9346   -3.4101    7.9118 H   0  0  0  0  0  0  0  0  0  0  0  0
   11.0466   -2.2494   10.0163 H   0  0  0  0  0  0  0  0  0  0  0  0
   13.0844   -2.4303   11.4037 H   0  0  0  0  0  0  0  0  0  0  0  0
   15.1911   -3.2825   10.4159 H   0  0  0  0  0  0  0  0  0  0  0  0
   15.2689   -3.9483    8.0247 H   0  0  0  0  0  0  0  0  0  0  0  0
   13.2416   -3.7699    6.6273 H   0  0  0  0  0  0  0  0  0  0  0  0
   10.2698    0.7401    6.0371 H   0  0  0  0  0  0  0  0  0  0  0  0
    8.9091    1.3043    4.0836 H   0  0  0  0  0  0  0  0  0  0  0  0
    5.4603    2.8774    3.9082 H   0  0  0  0  0  0  0  0  0  0  0  0
  1  2  1  0  0  0  0
  1 35  1  0  0  0  0
  1 36  1  0  0  0  0
  1 37  1  0  0  0  0
  2  3  1  0  0  0  0
  2 29  1  0  0  0  0
  3  4  2  0  0  0  0
  3 38  1  0  0  0  0
  4  5  1  0  0  0  0
  4 39  1  0  0  0  0
  5  6  1  0  0  0  0
  5 29  2  0  0  0  0
  6  7  2  0  0  0  0
  6 40  1  0  0  0  0
  7  8  1  0  0  0  0
  7 41  1  0  0  0  0
  8  9  1  0  0  0  0
  8 28  2  0  0  0  0
  9 10  1  0  0  0  0
  9 25  2  0  0  0  0
 10 11  1  0  0  0  0
 10 42  1  0  0  0  0
 11 12  1  0  0  0  0
 11 24  2  0  0  0  0
 12 13  2  0  0  0  0
 12 43  1  0  0  0  0
 13 14  1  0  0  0  0
 13 22  1  0  0  0  0
 14 15  1  0  0  0  0
 15 16  1  0  0  0  0
 15 44  1  0  0  0  0
 15 45  1  0  0  0  0
 16 17  1  0  0  0  0
 16 21  2  0  0  0  0
 17 18  2  0  0  0  0
 17 46  1  0  0  0  0
 18 19  1  0  0  0  0
 18 47  1  0  0  0  0
 19 20  2  0  0  0  0
 19 48  1  0  0  0  0
 20 21  1  0  0  0  0
 20 49  1  0  0  0  0
 21 50  1  0  0  0  0
 22 23  2  0  0  0  0
 22 51  1  0  0  0  0
 23 24  1  0  0  0  0
 23 52  1  0  0  0  0
 24 25  1  0  0  0  0
 25 26  1  0  0  0  0
 26 27  2  0  0  0  0
 26 33  1  0  0  0  0
 27 28  1  0  0  0  0
 27 30  1  0  0  0  0
 28 29  1  0  0  0  0
 30 31  2  0  0  0  0
 30 32  1  0  0  0  0
 32 33  1  0  0  0  0
 32 53  1  0  0  0  0
 33 34  2  0  0  0  0
M  END
$$$$
