
 OpenBabel01112423003D

 59 62  0  0  0  0  0  0  0  0999 V2000
    5.1988   -5.0456   -4.8432 C   0  0  0  0  0  0  0  0  0  0  0  0
    5.4199   -3.8925   -4.0345 O   0  0  0  0  0  0  0  0  0  0  0  0
    6.0423   -2.8706   -4.6739 C   0  0  0  0  0  0  0  0  0  0  0  0
    6.4176   -2.8610   -5.8277 O   0  0  0  0  0  0  0  0  0  0  0  0
    6.2322   -1.7275   -3.7400 C   0  0  0  0  0  0  0  0  0  0  0  0
    5.7798   -1.8043   -2.4183 C   0  0  0  0  0  0  0  0  0  0  0  0
    5.9900   -0.7386   -1.5595 C   0  0  0  0  0  0  0  0  0  0  0  0
    6.6793    0.3873   -2.0076 C   0  0  0  0  0  0  0  0  0  0  0  0
    7.2032    0.4592   -3.3056 C   0  0  0  0  0  0  0  0  0  0  0  0
    8.0221    1.5363   -3.7475 N   0  0  0  0  0  0  0  0  0  0  0  0
    8.6759    2.4072   -2.8873 C   0  0  0  0  0  0  0  0  0  0  0  0
    8.6700    2.2546   -1.6747 O   0  0  0  0  0  0  0  0  0  0  0  0
    9.4980    3.5803   -3.5080 C   0  0  0  0  0  0  0  0  0  0  0  0
   10.5262    2.9061   -4.4869 C   0  0  0  0  0  0  0  0  0  0  0  0
   11.4471    3.7524   -5.2762 N   0  0  0  0  0  0  0  0  0  0  0  0
   12.3293    4.5632   -4.4469 C   0  0  0  0  0  0  0  0  0  0  0  0
   12.2581    2.9233   -6.1724 C   0  0  0  0  0  0  0  0  0  0  0  0
   10.1790    4.2537   -2.2639 C   0  0  0  0  0  0  0  0  0  0  0  0
    9.3611    5.3702   -1.6116 C   0  0  0  0  0  0  0  0  0  0  0  0
    8.9243    6.2518   -2.6753 N   0  0  0  0  0  0  0  0  0  0  0  0
    9.0875    7.6124   -2.5963 C   0  0  0  0  0  0  0  0  0  0  0  0
    9.1601    8.2231   -1.3842 N   0  0  0  0  0  0  0  0  0  0  0  0
    9.2765    9.5667   -1.3354 C   0  0  0  0  0  0  0  0  0  0  0  0
    9.3476   10.4398   -2.3527 N   0  0  0  0  0  0  0  0  0  0  0  0
    9.2788    9.7932   -3.5355 C   0  0  0  0  0  0  0  0  0  0  0  0
    9.2761   10.3692   -4.7716 N   0  0  0  0  0  0  0  0  0  0  0  0
    9.1795    9.4768   -5.7807 N   0  0  0  0  0  0  0  0  0  0  0  0
    9.1313    8.3064   -5.1406 C   0  0  0  0  0  0  0  0  0  0  0  0
    9.1645    8.4421   -3.7320 C   0  0  0  0  0  0  0  0  0  0  0  0
    7.9405    5.6917   -3.5764 C   0  0  0  0  0  0  0  0  0  0  0  0
    8.6228    4.5619   -4.3455 C   0  0  0  0  0  0  0  0  0  0  0  0
    6.9257   -0.5872   -4.1913 C   0  0  0  0  0  0  0  0  0  0  0  0
    4.5516   -5.7290   -4.2863 H   0  0  0  0  0  0  0  0  0  0  0  0
    6.1508   -5.5466   -5.0385 H   0  0  0  0  0  0  0  0  0  0  0  0
    4.6973   -4.7792   -5.7771 H   0  0  0  0  0  0  0  0  0  0  0  0
    5.2782   -2.6929   -2.0432 H   0  0  0  0  0  0  0  0  0  0  0  0
    5.6460   -0.7839   -0.5297 H   0  0  0  0  0  0  0  0  0  0  0  0
    6.7975    1.1989   -1.2961 H   0  0  0  0  0  0  0  0  0  0  0  0
    8.2669    1.5289   -4.7272 H   0  0  0  0  0  0  0  0  0  0  0  0
    9.9270    2.3739   -5.2331 H   0  0  0  0  0  0  0  0  0  0  0  0
   11.0929    2.1389   -3.9490 H   0  0  0  0  0  0  0  0  0  0  0  0
   11.7715    5.4145   -4.0588 H   0  0  0  0  0  0  0  0  0  0  0  0
   13.1405    5.0226   -5.0227 H   0  0  0  0  0  0  0  0  0  0  0  0
   12.7833    3.9845   -3.6319 H   0  0  0  0  0  0  0  0  0  0  0  0
   11.6211    2.3847   -6.8820 H   0  0  0  0  0  0  0  0  0  0  0  0
   12.8690    2.1964   -5.6252 H   0  0  0  0  0  0  0  0  0  0  0  0
   12.9267    3.5513   -6.7733 H   0  0  0  0  0  0  0  0  0  0  0  0
   11.1445    4.6780   -2.4989 H   0  0  0  0  0  0  0  0  0  0  0  0
   10.4359    3.5171   -1.4956 H   0  0  0  0  0  0  0  0  0  0  0  0
    9.9818    5.8828   -0.8662 H   0  0  0  0  0  0  0  0  0  0  0  0
    8.5015    4.9499   -1.0779 H   0  0  0  0  0  0  0  0  0  0  0  0
    9.3218    9.9984   -0.3378 H   0  0  0  0  0  0  0  0  0  0  0  0
    9.3203   11.3531   -4.9898 H   0  0  0  0  0  0  0  0  0  0  0  0
    9.0388    7.4023   -5.7262 H   0  0  0  0  0  0  0  0  0  0  0  0
    7.5678    6.4317   -4.2972 H   0  0  0  0  0  0  0  0  0  0  0  0
    7.0547    5.3514   -3.0328 H   0  0  0  0  0  0  0  0  0  0  0  0
    9.2677    5.0758   -5.0666 H   0  0  0  0  0  0  0  0  0  0  0  0
    7.8772    4.0259   -4.9420 H   0  0  0  0  0  0  0  0  0  0  0  0
    7.2867   -0.5607   -5.2169 H   0  0  0  0  0  0  0  0  0  0  0  0
  1  2  1  0  0  0  0
  1 33  1  0  0  0  0
  1 34  1  0  0  0  0
  1 35  1  0  0  0  0
  2  3  1  0  0  0  0
  3  4  2  0  0  0  0
  3  5  1  0  0  0  0
  5  6  1  0  0  0  0
  5 32  2  0  0  0  0
  6  7  2  0  0  0  0
  6 36  1  0  0  0  0
  7  8  1  0  0  0  0
  7 37  1  0  0  0  0
  8  9  2  0  0  0  0
  8 38  1  0  0  0  0
  9 10  1  0  0  0  0
  9 32  1  0  0  0  0
 10 11  1  0  0  0  0
 10 39  1  0  0  0  0
 11 12  2  0  0  0  0
 11 13  1  0  0  0  0
 13 14  1  0  0  0  0
 13 18  1  0  0  0  0
 13 31  1  0  0  0  0
 14 15  1  0  0  0  0
 14 40  1  0  0  0  0
 14 41  1  0  0  0  0
 15 16  1  0  0  0  0
 15 17  1  0  0  0  0
 16 42  1  0  0  0  0
 16 43  1  0  0  0  0
 16 44  1  0  0  0  0
 17 45  1  0  0  0  0
 17 46  1  0  0  0  0
 17 47  1  0  0  0  0
 18 19  1  0  0  0  0
 18 48  1  0  0  0  0
 18 49  1  0  0  0  0
 19 20  1  0  0  0  0
 19 50  1  0  0  0  0
 19 51  1  0  0  0  0
 20 21  1  0  0  0  0
 20 30  1  0  0  0  0
 21 22  1  0  0  0  0
 21 29  2  0  0  0  0
 22 23  2  0  0  0  0
 23 24  1  0  0  0  0
 23 52  1  0  0  0  0
 24 25  2  0  0  0  0
 25 26  1  0  0  0  0
 25 29  1  0  0  0  0
 26 27  1  0  0  0  0
 26 53  1  0  0  0  0
 27 28  2  0  0  0  0
 28 29  1  0  0  0  0
 28 54  1  0  0  0  0
 30 31  1  0  0  0  0
 30 55  1  0  0  0  0
 30 56  1  0  0  0  0
 31 57  1  0  0  0  0
 31 58  1  0  0  0  0
 32 59  1  0  0  0  0
M  END
$$$$
