
 OpenBabel01112422393D

 54 58  0  0  0  0  0  0  0  0999 V2000
    1.0069    0.1778    0.3992 O   0  0  0  0  0  0  0  0  0  0  0  0
    2.2282    0.0951    0.2646 C   0  0  0  0  0  0  0  0  0  0  0  0
    3.0079    1.3561    0.1964 C   0  0  0  0  0  0  0  0  0  0  0  0
    2.2980    2.5759    0.1941 C   0  0  0  0  0  0  0  0  0  0  0  0
    2.9926    3.7711    0.1197 C   0  0  0  0  0  0  0  0  0  0  0  0
    2.3636    4.9833    0.1049 O   0  0  0  0  0  0  0  0  0  0  0  0
    4.3767    3.7587    0.0521 C   0  0  0  0  0  0  0  0  0  0  0  0
    5.0688    4.9343   -0.0136 O   0  0  0  0  0  0  0  0  0  0  0  0
    5.0825    2.5596    0.0480 C   0  0  0  0  0  0  0  0  0  0  0  0
    4.4108    1.3200    0.1191 C   0  0  0  0  0  0  0  0  0  0  0  0
    5.1036    0.0145    0.1094 C   0  0  0  0  0  0  0  0  0  0  0  0
    6.5179   -0.0809    0.0946 C   0  0  0  0  0  0  0  0  0  0  0  0
    7.1521   -1.3164    0.0731 C   0  0  0  0  0  0  0  0  0  0  0  0
    8.5123   -1.4416    0.0635 O   0  0  0  0  0  0  0  0  0  0  0  0
    6.4005   -2.4745    0.0725 C   0  0  0  0  0  0  0  0  0  0  0  0
    7.0123   -3.6944    0.0543 O   0  0  0  0  0  0  0  0  0  0  0  0
    5.0167   -2.4180    0.1059 C   0  0  0  0  0  0  0  0  0  0  0  0
    4.3424   -1.1848    0.1165 C   0  0  0  0  0  0  0  0  0  0  0  0
    2.9084   -1.1222    0.1640 N   0  0  0  0  0  0  0  0  0  0  0  0
    2.0793   -2.3394    0.0822 C   0  0  0  0  0  0  0  0  0  0  0  0
    1.7676   -2.7335   -1.3532 C   0  0  0  0  0  0  0  0  0  0  0  0
    2.6092   -3.5975   -2.0719 C   0  0  0  0  0  0  0  0  0  0  0  0
    2.4241   -3.8038   -3.4386 C   0  0  0  0  0  0  0  0  0  0  0  0
    1.3761   -3.1564   -4.0909 C   0  0  0  0  0  0  0  0  0  0  0  0
    1.2864   -3.2219   -5.8677 S   0  0  0  0  0  0  0  0  0  0  0  0
    1.9156   -4.4588   -6.2932 O   0  0  0  0  0  0  0  0  0  0  0  0
   -0.0760   -2.9160   -6.2514 O   0  0  0  0  0  0  0  0  0  0  0  0
    2.3188   -1.8725   -6.4126 C   0  0  0  0  0  0  0  0  0  0  0  0
    3.6849   -2.0839   -6.6250 C   0  0  0  0  0  0  0  0  0  0  0  0
    4.4964   -1.0097   -6.9933 C   0  0  0  0  0  0  0  0  0  0  0  0
    3.9414    0.2605   -7.1616 C   0  0  0  0  0  0  0  0  0  0  0  0
    2.5725    0.4594   -6.9744 C   0  0  0  0  0  0  0  0  0  0  0  0
    1.7543   -0.6077   -6.6030 C   0  0  0  0  0  0  0  0  0  0  0  0
    0.4529   -2.3924   -3.3757 C   0  0  0  0  0  0  0  0  0  0  0  0
    0.6582   -2.1756   -2.0113 C   0  0  0  0  0  0  0  0  0  0  0  0
    1.2127    2.5690    0.2474 H   0  0  0  0  0  0  0  0  0  0  0  0
    1.4021    4.8312    0.1328 H   0  0  0  0  0  0  0  0  0  0  0  0
    4.3811    5.6303    0.0152 H   0  0  0  0  0  0  0  0  0  0  0  0
    6.1629    2.6328   -0.0174 H   0  0  0  0  0  0  0  0  0  0  0  0
    7.1367    0.8091    0.1039 H   0  0  0  0  0  0  0  0  0  0  0  0
    8.9078   -0.5533    0.0955 H   0  0  0  0  0  0  0  0  0  0  0  0
    7.9697   -3.4931    0.0486 H   0  0  0  0  0  0  0  0  0  0  0  0
    4.5030   -3.3682    0.1434 H   0  0  0  0  0  0  0  0  0  0  0  0
    1.1298   -2.1684    0.6061 H   0  0  0  0  0  0  0  0  0  0  0  0
    2.5347   -3.1674    0.6336 H   0  0  0  0  0  0  0  0  0  0  0  0
    3.4443   -4.0973   -1.5908 H   0  0  0  0  0  0  0  0  0  0  0  0
    3.1224   -4.4334   -3.9858 H   0  0  0  0  0  0  0  0  0  0  0  0
    4.1261   -3.0697   -6.4969 H   0  0  0  0  0  0  0  0  0  0  0  0
    5.5620   -1.1587   -7.1504 H   0  0  0  0  0  0  0  0  0  0  0  0
    4.5765    1.0981   -7.4424 H   0  0  0  0  0  0  0  0  0  0  0  0
    2.1436    1.4494   -7.1153 H   0  0  0  0  0  0  0  0  0  0  0  0
    0.6891   -0.4440   -6.4569 H   0  0  0  0  0  0  0  0  0  0  0  0
   -0.3953   -1.9285   -3.8738 H   0  0  0  0  0  0  0  0  0  0  0  0
   -0.0351   -1.5357   -1.4662 H   0  0  0  0  0  0  0  0  0  0  0  0
  1  2  2  0  0  0  0
  2  3  1  0  0  0  0
  2 19  1  0  0  0  0
  3  4  1  0  0  0  0
  3 10  2  0  0  0  0
  4  5  2  0  0  0  0
  4 36  1  0  0  0  0
  5  6  1  0  0  0  0
  5  7  1  0  0  0  0
  6 37  1  0  0  0  0
  7  8  1  0  0  0  0
  7  9  2  0  0  0  0
  8 38  1  0  0  0  0
  9 10  1  0  0  0  0
  9 39  1  0  0  0  0
 10 11  1  0  0  0  0
 11 12  1  0  0  0  0
 11 18  2  0  0  0  0
 12 13  2  0  0  0  0
 12 40  1  0  0  0  0
 13 14  1  0  0  0  0
 13 15  1  0  0  0  0
 14 41  1  0  0  0  0
 15 16  1  0  0  0  0
 15 17  2  0  0  0  0
 16 42  1  0  0  0  0
 17 18  1  0  0  0  0
 17 43  1  0  0  0  0
 18 19  1  0  0  0  0
 19 20  1  0  0  0  0
 20 21  1  0  0  0  0
 20 44  1  0  0  0  0
 20 45  1  0  0  0  0
 21 22  1  0  0  0  0
 21 35  2  0  0  0  0
 22 23  2  0  0  0  0
 22 46  1  0  0  0  0
 23 24  1  0  0  0  0
 23 47  1  0  0  0  0
 24 25  1  0  0  0  0
 24 34  2  0  0  0  0
 25 26  2  0  0  0  0
 25 27  2  0  0  0  0
 25 28  1  0  0  0  0
 28 29  1  0  0  0  0
 28 33  2  0  0  0  0
 29 30  2  0  0  0  0
 29 48  1  0  0  0  0
 30 31  1  0  0  0  0
 30 49  1  0  0  0  0
 31 32  2  0  0  0  0
 31 50  1  0  0  0  0
 32 33  1  0  0  0  0
 32 51  1  0  0  0  0
 33 52  1  0  0  0  0
 34 35  1  0  0  0  0
 34 53  1  0  0  0  0
 35 54  1  0  0  0  0
M  END
$$$$
