
 OpenBabel01112422343D

 64 70  0  0  1  0  0  0  0  0999 V2000
   14.0415   10.5596  -19.0175 C   0  0  0  0  0  0  0  0  0  0  0  0
   12.8730   10.5406  -18.1741 N   0  0  0  0  0  0  0  0  0  0  0  0
   11.8446   11.4603  -18.4539 C   0  0  0  0  0  0  0  0  0  0  0  0
   10.7391   10.7330  -18.0649 C   0  0  0  0  0  0  0  0  0  0  0  0
   11.2171   10.3513  -16.7795 C   0  0  0  0  0  0  0  0  0  0  0  0
   10.5527   10.2264  -15.5549 C   0  0  0  0  0  0  0  0  0  0  0  0
   11.1676    9.5403  -14.5373 C   0  0  0  0  0  0  0  0  0  0  0  0
   12.3129    8.8169  -14.8534 C   0  0  0  0  0  0  0  0  0  0  0  0
   12.6361    7.7911  -13.9862 C   0  0  0  0  0  0  0  0  0  0  0  0
   12.2740    7.5014  -12.6962 N   0  0  0  0  0  0  0  0  0  0  0  0
   13.1587    6.5837  -12.1532 C   0  0  0  0  0  0  0  0  0  0  0  0
   13.3534    6.2829  -10.7997 C   0  0  0  0  0  0  0  0  0  0  0  0
   12.5363    6.9333   -9.7104 C   0  0  0  0  0  0  0  0  0  0  0  0
   11.2349    6.1407   -9.5673 C   0  0  0  0  0  0  0  0  0  0  0  0
   10.3236    6.6928   -8.5510 N   0  0  0  0  0  0  0  0  0  0  0  0
    9.1129    5.8652   -8.4223 C   0  0  1  0  0  0  0  0  0  0  0  0
    9.4416    4.4416   -7.9360 C   0  0  0  0  0  0  0  0  0  0  0  0
    8.1909    3.6109   -7.6784 C   0  0  0  0  0  0  0  0  0  0  0  0
    7.2681    4.3117   -6.6908 C   0  0  2  0  0  0  0  0  0  0  0  0
    6.0989    3.5284   -6.4953 O   0  0  0  0  0  0  0  0  0  0  0  0
    6.8886    5.6992   -7.2025 C   0  0  0  0  0  0  0  0  0  0  0  0
    8.1300    6.5560   -7.4634 C   0  0  0  0  0  0  0  0  0  0  0  0
   14.2975    5.2842  -10.5237 C   0  0  0  0  0  0  0  0  0  0  0  0
   14.9804    4.6283  -11.5461 C   0  0  0  0  0  0  0  0  0  0  0  0
   14.7705    4.9646  -12.8771 C   0  0  0  0  0  0  0  0  0  0  0  0
   13.8837    5.9916  -13.1970 C   0  0  0  0  0  0  0  0  0  0  0  0
   13.4758    6.7539  -14.3075 C   0  0  0  0  0  0  0  0  0  0  0  0
   14.2613    6.8508  -15.4829 C   0  0  0  0  0  0  0  0  0  0  0  0
   14.2567    8.1707  -16.0465 C   0  0  0  0  0  0  0  0  0  0  0  0
   13.1251    9.0164  -16.0131 C   0  0  0  0  0  0  0  0  0  0  0  0
   12.5687    9.9193  -16.9652 C   0  0  0  0  0  0  0  0  0  0  0  0
   15.6773    8.4813  -15.9987 C   0  0  0  0  0  0  0  0  0  0  0  0
   16.2841    9.4964  -15.6789 O   0  0  0  0  0  0  0  0  0  0  0  0
   16.2927    7.2429  -16.0581 N   0  0  0  0  0  0  0  0  0  0  0  0
   15.4537    6.1910  -15.8114 C   0  0  0  0  0  0  0  0  0  0  0  0
   15.8117    5.0116  -15.8537 O   0  0  0  0  0  0  0  0  0  0  0  0
   14.2397    9.5501  -19.3738 H   0  0  0  0  0  0  0  0  0  0  0  0
   14.8762   11.0072  -18.4819 H   0  0  0  0  0  0  0  0  0  0  0  0
   13.8095   11.1871  -19.8925 H   0  0  0  0  0  0  0  0  0  0  0  0
   12.0726   12.4937  -18.2045 H   0  0  0  0  0  0  0  0  0  0  0  0
   10.3596    9.9444  -18.7221 H   0  0  0  0  0  0  0  0  0  0  0  0
    9.5539   10.6288  -15.4280 H   0  0  0  0  0  0  0  0  0  0  0  0
   10.6539    9.4510  -13.5887 H   0  0  0  0  0  0  0  0  0  0  0  0
   11.6551    8.0731  -12.1454 H   0  0  0  0  0  0  0  0  0  0  0  0
   12.3335    7.9802   -9.9747 H   0  0  0  0  0  0  0  0  0  0  0  0
   13.1035    6.9608   -8.7726 H   0  0  0  0  0  0  0  0  0  0  0  0
   11.5271    5.1164   -9.3043 H   0  0  0  0  0  0  0  0  0  0  0  0
   10.7148    6.1089  -10.5356 H   0  0  0  0  0  0  0  0  0  0  0  0
   10.0646    7.6484   -8.8080 H   0  0  0  0  0  0  0  0  0  0  0  0
    8.6283    5.7967   -9.4068 H   0  0  0  0  0  0  0  0  0  0  0  0
   10.0410    4.4913   -7.0176 H   0  0  0  0  0  0  0  0  0  0  0  0
   10.0372    3.9007   -8.6793 H   0  0  0  0  0  0  0  0  0  0  0  0
    8.4780    2.6266   -7.2945 H   0  0  0  0  0  0  0  0  0  0  0  0
    7.6535    3.4196   -8.6188 H   0  0  0  0  0  0  0  0  0  0  0  0
    7.7692    4.4000   -5.7177 H   0  0  0  0  0  0  0  0  0  0  0  0
    5.6774    3.3888   -7.3594 H   0  0  0  0  0  0  0  0  0  0  0  0
    6.2290    6.1936   -6.4810 H   0  0  0  0  0  0  0  0  0  0  0  0
    6.2994    5.6049   -8.1241 H   0  0  0  0  0  0  0  0  0  0  0  0
    8.6264    6.7703   -6.5074 H   0  0  0  0  0  0  0  0  0  0  0  0
    7.8190    7.5215   -7.8827 H   0  0  0  0  0  0  0  0  0  0  0  0
   14.4902    4.9956   -9.4918 H   0  0  0  0  0  0  0  0  0  0  0  0
   15.6959    3.8471  -11.3015 H   0  0  0  0  0  0  0  0  0  0  0  0
   15.3383    4.4393  -13.6498 H   0  0  0  0  0  0  0  0  0  0  0  0
   17.2643    7.1269  -15.8056 H   0  0  0  0  0  0  0  0  0  0  0  0
  1  2  1  0  0  0  0
  1 37  1  0  0  0  0
  1 38  1  0  0  0  0
  1 39  1  0  0  0  0
  2  3  1  0  0  0  0
  2 31  1  0  0  0  0
  3  4  2  0  0  0  0
  3 40  1  0  0  0  0
  4  5  1  0  0  0  0
  4 41  1  0  0  0  0
  5  6  1  0  0  0  0
  5 31  2  0  0  0  0
  6  7  2  0  0  0  0
  6 42  1  0  0  0  0
  7  8  1  0  0  0  0
  7 43  1  0  0  0  0
  8  9  1  0  0  0  0
  8 30  2  0  0  0  0
  9 10  1  0  0  0  0
  9 27  2  0  0  0  0
 10 11  1  0  0  0  0
 10 44  1  0  0  0  0
 11 12  1  0  0  0  0
 11 26  2  0  0  0  0
 12 13  1  0  0  0  0
 12 23  2  0  0  0  0
 13 14  1  0  0  0  0
 13 45  1  0  0  0  0
 13 46  1  0  0  0  0
 14 15  1  0  0  0  0
 14 47  1  0  0  0  0
 14 48  1  0  0  0  0
 15 49  1  0  0  0  0
 16 17  1  0  0  0  0
 16 22  1  0  0  0  0
 16 15  1  0  0  0  0
 16 50  1  6  0  0  0
 17 18  1  0  0  0  0
 17 51  1  0  0  0  0
 17 52  1  0  0  0  0
 18 19  1  0  0  0  0
 18 53  1  0  0  0  0
 18 54  1  0  0  0  0
 19 20  1  0  0  0  0
 19 21  1  0  0  0  0
 19 55  1  1  0  0  0
 20 56  1  0  0  0  0
 21 22  1  0  0  0  0
 21 57  1  0  0  0  0
 21 58  1  0  0  0  0
 22 59  1  0  0  0  0
 22 60  1  0  0  0  0
 23 24  1  0  0  0  0
 23 61  1  0  0  0  0
 24 25  2  0  0  0  0
 24 62  1  0  0  0  0
 25 26  1  0  0  0  0
 25 63  1  0  0  0  0
 26 27  1  0  0  0  0
 27 28  1  0  0  0  0
 28 29  2  0  0  0  0
 28 35  1  0  0  0  0
 29 30  1  0  0  0  0
 29 32  1  0  0  0  0
 30 31  1  0  0  0  0
 32 33  2  0  0  0  0
 32 34  1  0  0  0  0
 34 35  1  0  0  0  0
 34 64  1  0  0  0  0
 35 36  2  0  0  0  0
M  END
$$$$
