
 OpenBabel01112422463D

 66 69  0  0  1  0  0  0  0  0999 V2000
    2.2864   -0.4302   -1.9118 O   0  0  0  0  0  0  0  0  0  0  0  0
    3.0099   -0.1650   -0.9524 C   0  0  0  0  0  0  0  0  0  0  0  0
    3.0750    1.1266   -0.4496 N   0  0  0  0  0  0  0  0  0  0  0  0
    2.1261    2.1579   -0.9579 C   0  0  3  0  0  0  0  0  0  0  0  0
    0.7221    2.0237   -0.3008 C   0  0  0  0  0  0  0  0  0  0  0  0
    0.8145    1.7924    1.1424 N   0  0  0  0  0  0  0  0  0  0  0  0
    0.9463    2.9793    1.9739 C   0  0  0  0  0  0  0  0  0  0  0  0
    1.4631    4.2717    1.3396 C   0  0  0  0  0  0  0  0  0  0  0  0
    2.7859    4.1317    0.5808 C   0  0  0  0  0  0  0  0  0  0  0  0
    2.6582    3.6076   -0.8576 C   0  0  3  0  0  0  0  0  0  0  0  0
    1.7568    4.4719   -1.6028 O   0  0  0  0  0  0  0  0  0  0  0  0
    2.2323    5.6615   -2.0453 C   0  0  0  0  0  0  0  0  0  0  0  0
    3.3789    6.0735   -1.9060 O   0  0  0  0  0  0  0  0  0  0  0  0
    1.1717    6.4276   -2.7471 C   0  0  0  0  0  0  0  0  0  0  0  0
    1.4541    7.6700   -3.3310 C   0  0  0  0  0  0  0  0  0  0  0  0
    0.4538    8.3535   -4.0379 C   0  0  0  0  0  0  0  0  0  0  0  0
    0.7627    9.5846   -4.5570 O   0  0  0  0  0  0  0  0  0  0  0  0
   -0.8355    7.8111   -4.1903 C   0  0  0  0  0  0  0  0  0  0  0  0
   -1.8786    8.5559   -4.9747 C   0  0  0  0  0  0  0  0  0  0  0  0
   -1.5229    9.1926   -5.9608 O   0  0  0  0  0  0  0  0  0  0  0  0
   -3.3392    8.4298   -4.7340 C   0  0  0  0  0  0  0  0  0  0  0  0
   -3.8450    8.2379   -3.4265 C   0  0  0  0  0  0  0  0  0  0  0  0
   -3.1015    8.2868   -2.2780 O   0  0  0  0  0  0  0  0  0  0  0  0
   -5.1691    7.8578   -3.2082 C   0  0  0  0  0  0  0  0  0  0  0  0
   -6.0475    7.7511   -4.2744 C   0  0  0  0  0  0  0  0  0  0  0  0
   -5.5958    8.0283   -5.5604 C   0  0  0  0  0  0  0  0  0  0  0  0
   -4.2438    8.3600   -5.8198 C   0  0  0  0  0  0  0  0  0  0  0  0
   -3.9547    8.5764   -7.2753 C   0  0  0  0  0  0  0  0  0  0  0  0
   -4.8207    9.0135   -8.0204 O   0  0  0  0  0  0  0  0  0  0  0  0
   -2.8096    8.0575   -7.7552 O   0  0  0  0  0  0  0  0  0  0  0  0
   -1.0850    6.5545   -3.6190 C   0  0  0  0  0  0  0  0  0  0  0  0
   -2.2256    5.8107   -3.7066 O   0  0  0  0  0  0  0  0  0  0  0  0
   -0.1089    5.9017   -2.8692 C   0  0  0  0  0  0  0  0  0  0  0  0
    3.8282   -1.2646   -0.3475 C   0  0  0  0  0  0  0  0  0  0  0  0
    3.7644   -2.5183   -0.9908 C   0  0  0  0  0  0  0  0  0  0  0  0
    4.4505   -3.6247   -0.5007 C   0  0  0  0  0  0  0  0  0  0  0  0
    5.2392   -3.4899    0.6368 C   0  0  0  0  0  0  0  0  0  0  0  0
    5.9510   -4.5438    1.1277 O   0  0  0  0  0  0  0  0  0  0  0  0
    5.2990   -2.2613    1.3068 C   0  0  0  0  0  0  0  0  0  0  0  0
    4.5935   -1.1524    0.8198 C   0  0  0  0  0  0  0  0  0  0  0  0
    3.8525    1.3988    0.1363 H   0  0  0  0  0  0  0  0  0  0  0  0
    1.9824    1.9455   -2.0259 H   0  0  0  0  0  0  0  0  0  0  0  0
    0.2111    1.1548   -0.7329 H   0  0  0  0  0  0  0  0  0  0  0  0
    0.0715    2.8756   -0.5377 H   0  0  0  0  0  0  0  0  0  0  0  0
    1.6095    1.1691    1.2926 H   0  0  0  0  0  0  0  0  0  0  0  0
    1.5933    2.7222    2.8220 H   0  0  0  0  0  0  0  0  0  0  0  0
   -0.0365    3.1881    2.4141 H   0  0  0  0  0  0  0  0  0  0  0  0
    1.6154    4.9919    2.1540 H   0  0  0  0  0  0  0  0  0  0  0  0
    0.6877    4.7138    0.7025 H   0  0  0  0  0  0  0  0  0  0  0  0
    3.4921    3.5173    1.1490 H   0  0  0  0  0  0  0  0  0  0  0  0
    3.2200    5.1373    0.5289 H   0  0  0  0  0  0  0  0  0  0  0  0
    3.6400    3.6360   -1.3470 H   0  0  0  0  0  0  0  0  0  0  0  0
    2.4524    8.0979   -3.2225 H   0  0  0  0  0  0  0  0  0  0  0  0
    1.7311    9.6851   -4.6529 H   0  0  0  0  0  0  0  0  0  0  0  0
   -2.2114    8.6431   -2.4246 H   0  0  0  0  0  0  0  0  0  0  0  0
   -5.5036    7.6227   -2.1991 H   0  0  0  0  0  0  0  0  0  0  0  0
   -7.0815    7.4527   -4.1008 H   0  0  0  0  0  0  0  0  0  0  0  0
   -6.3101    7.9550   -6.3864 H   0  0  0  0  0  0  0  0  0  0  0  0
   -2.0350    8.2068   -7.1694 H   0  0  0  0  0  0  0  0  0  0  0  0
   -2.9426    6.2550   -4.1691 H   0  0  0  0  0  0  0  0  0  0  0  0
   -0.3767    4.9539   -2.4005 H   0  0  0  0  0  0  0  0  0  0  0  0
    3.1474   -2.6446   -1.8796 H   0  0  0  0  0  0  0  0  0  0  0  0
    4.3770   -4.5772   -1.0241 H   0  0  0  0  0  0  0  0  0  0  0  0
    5.8526   -5.2988    0.5251 H   0  0  0  0  0  0  0  0  0  0  0  0
    5.8951   -2.1879    2.2142 H   0  0  0  0  0  0  0  0  0  0  0  0
    4.6508   -0.2229    1.3776 H   0  0  0  0  0  0  0  0  0  0  0  0
  1  2  2  0  0  0  0
  2  3  1  0  0  0  0
  2 34  1  0  0  0  0
  3  4  1  0  0  0  0
  3 41  1  0  0  0  0
  4  5  1  0  0  0  0
  4 10  1  0  0  0  0
  4 42  1  0  0  0  0
  5  6  1  0  0  0  0
  5 43  1  0  0  0  0
  5 44  1  0  0  0  0
  6  7  1  0  0  0  0
  6 45  1  0  0  0  0
  7  8  1  0  0  0  0
  7 46  1  0  0  0  0
  7 47  1  0  0  0  0
  8  9  1  0  0  0  0
  8 48  1  0  0  0  0
  8 49  1  0  0  0  0
  9 10  1  0  0  0  0
  9 50  1  0  0  0  0
  9 51  1  0  0  0  0
 10 11  1  0  0  0  0
 10 52  1  0  0  0  0
 11 12  1  0  0  0  0
 12 13  2  0  0  0  0
 12 14  1  0  0  0  0
 14 15  1  0  0  0  0
 14 33  2  0  0  0  0
 15 16  2  0  0  0  0
 15 53  1  0  0  0  0
 16 17  1  0  0  0  0
 16 18  1  0  0  0  0
 17 54  1  0  0  0  0
 18 19  1  0  0  0  0
 18 31  2  0  0  0  0
 19 20  2  0  0  0  0
 19 21  1  0  0  0  0
 21 22  1  0  0  0  0
 21 27  2  0  0  0  0
 22 23  1  0  0  0  0
 22 24  2  0  0  0  0
 23 55  1  0  0  0  0
 24 25  1  0  0  0  0
 24 56  1  0  0  0  0
 25 26  2  0  0  0  0
 25 57  1  0  0  0  0
 26 27  1  0  0  0  0
 26 58  1  0  0  0  0
 27 28  1  0  0  0  0
 28 29  2  0  0  0  0
 28 30  1  0  0  0  0
 30 59  1  0  0  0  0
 31 32  1  0  0  0  0
 31 33  1  0  0  0  0
 32 60  1  0  0  0  0
 33 61  1  0  0  0  0
 34 35  1  0  0  0  0
 34 40  2  0  0  0  0
 35 36  2  0  0  0  0
 35 62  1  0  0  0  0
 36 37  1  0  0  0  0
 36 63  1  0  0  0  0
 37 38  1  0  0  0  0
 37 39  2  0  0  0  0
 38 64  1  0  0  0  0
 39 40  1  0  0  0  0
 39 65  1  0  0  0  0
 40 66  1  0  0  0  0
M  END
$$$$
