
 OpenBabel01112422173D

 71 79  0  0  1  0  0  0  0  0999 V2000
    1.7344    1.2517    2.8435 C   0  0  0  0  0  0  0  0  0  0  0  0
    2.0366    1.0681    1.4746 O   0  0  0  0  0  0  0  0  0  0  0  0
    1.4678    2.1093    0.6661 C   0  0  1  0  0  0  0  0  0  0  0  0
    1.7175    2.2855   -0.8782 C   0  0  1  0  0  0  0  0  0  0  0  0
    2.9207    1.4973   -1.2872 N   0  0  0  0  0  0  0  0  0  0  0  0
    2.9231    0.6727   -2.4779 C   0  0  0  0  0  0  0  0  0  0  0  0
    4.1920    1.7821   -0.7220 C   0  0  0  0  0  0  0  0  0  0  0  0
    4.4452    2.9317    0.0521 C   0  0  0  0  0  0  0  0  0  0  0  0
    5.7237    3.2848    0.5103 C   0  0  0  0  0  0  0  0  0  0  0  0
    6.8141    2.4851    0.2159 C   0  0  0  0  0  0  0  0  0  0  0  0
    6.6036    1.2985   -0.4738 C   0  0  0  0  0  0  0  0  0  0  0  0
    5.3140    0.9471   -0.9111 C   0  0  0  0  0  0  0  0  0  0  0  0
    0.2482    2.4125   -1.8108 C   0  0  0  0  0  0  0  0  0  0  0  0
   -1.1219    3.0754   -0.9171 C   0  0  2  0  0  0  0  0  0  0  0  0
   -0.2707    3.4560    0.0636 O   0  0  0  0  0  0  0  0  0  0  0  0
   -0.0013    2.1503    0.7584 C   0  0  2  0  0  0  0  0  0  0  0  0
   -0.3918    2.9695    2.1118 C   0  0  0  0  0  0  0  0  0  0  0  0
   -0.6013    0.7699   -0.0678 N   0  0  0  0  0  0  0  0  0  0  0  0
   -0.0693   -0.3843   -0.8085 C   0  0  0  0  0  0  0  0  0  0  0  0
    1.1129   -1.1338   -0.7122 C   0  0  0  0  0  0  0  0  0  0  0  0
    1.4271   -2.0670   -1.7331 C   0  0  0  0  0  0  0  0  0  0  0  0
    0.6578   -2.2303   -2.8807 C   0  0  0  0  0  0  0  0  0  0  0  0
   -0.5861   -1.6285   -2.9677 C   0  0  0  0  0  0  0  0  0  0  0  0
   -1.0378   -0.8365   -1.8974 C   0  0  0  0  0  0  0  0  0  0  0  0
   -2.2934   -0.3566   -1.5543 C   0  0  0  0  0  0  0  0  0  0  0  0
   -3.6336   -0.4773   -2.0120 C   0  0  0  0  0  0  0  0  0  0  0  0
   -4.5997   -0.1360   -0.9701 C   0  0  0  0  0  0  0  0  0  0  0  0
   -4.0823    0.9433   -0.1768 C   0  0  0  0  0  0  0  0  0  0  0  0
   -4.1940    1.6804    1.1017 C   0  0  0  0  0  0  0  0  0  0  0  0
   -4.8000    1.5867    2.4112 C   0  0  0  0  0  0  0  0  0  0  0  0
   -4.0206    1.2676    3.5644 C   0  0  0  0  0  0  0  0  0  0  0  0
   -2.7703    0.7811    3.4137 C   0  0  0  0  0  0  0  0  0  0  0  0
   -2.2059    1.0534    2.1977 C   0  0  0  0  0  0  0  0  0  0  0  0
   -2.7775    2.0592    1.2606 C   0  0  0  0  0  0  0  0  0  0  0  0
   -2.3145    2.5805   -0.0923 N   0  0  0  0  0  0  0  0  0  0  0  0
   -2.8632    1.5060   -0.5771 C   0  0  0  0  0  0  0  0  0  0  0  0
   -1.8607    0.5839   -0.6767 C   0  0  0  0  0  0  0  0  0  0  0  0
   -5.8929   -0.3809   -1.5102 C   0  0  0  0  0  0  0  0  0  0  0  0
   -6.9869   -0.6000   -1.0152 O   0  0  0  0  0  0  0  0  0  0  0  0
   -5.6635   -0.3818   -2.9007 N   0  0  0  0  0  0  0  0  0  0  0  0
   -4.2654   -0.3248   -3.3296 C   0  0  0  0  0  0  0  0  0  0  0  0
    1.9191    2.2616    3.2123 H   0  0  0  0  0  0  0  0  0  0  0  0
    0.7012    0.9435    3.0748 H   0  0  0  0  0  0  0  0  0  0  0  0
    2.3430    0.5616    3.4810 H   0  0  0  0  0  0  0  0  0  0  0  0
    1.8751    3.0462    1.1005 H   0  0  0  0  0  0  0  0  0  0  0  0
    2.0400    3.3280   -1.0166 H   0  0  0  0  0  0  0  0  0  0  0  0
    3.3390   -0.3184   -2.2755 H   0  0  0  0  0  0  0  0  0  0  0  0
    1.9241    0.5255   -2.8859 H   0  0  0  0  0  0  0  0  0  0  0  0
    3.5345    1.1341   -3.2597 H   0  0  0  0  0  0  0  0  0  0  0  0
    3.6618    3.6318    0.3061 H   0  0  0  0  0  0  0  0  0  0  0  0
    5.8553    4.2028    1.0768 H   0  0  0  0  0  0  0  0  0  0  0  0
    7.8117    2.7805    0.5266 H   0  0  0  0  0  0  0  0  0  0  0  0
    7.4470    0.6441   -0.6826 H   0  0  0  0  0  0  0  0  0  0  0  0
    5.2231   -0.0142   -1.4070 H   0  0  0  0  0  0  0  0  0  0  0  0
    0.0132    1.5428   -2.4243 H   0  0  0  0  0  0  0  0  0  0  0  0
    0.4915    3.1868   -2.5533 H   0  0  0  0  0  0  0  0  0  0  0  0
   -1.5382    3.8847   -1.5296 H   0  0  0  0  0  0  0  0  0  0  0  0
   -1.3115    3.6125    2.0061 H   0  0  0  0  0  0  0  0  0  0  0  0
   -0.4967    2.4667    3.0724 H   0  0  0  0  0  0  0  0  0  0  0  0
    0.3121    3.7894    2.2688 H   0  0  0  0  0  0  0  0  0  0  0  0
    1.8140   -0.9805    0.1020 H   0  0  0  0  0  0  0  0  0  0  0  0
    2.3564   -2.6296   -1.6625 H   0  0  0  0  0  0  0  0  0  0  0  0
    0.9971   -2.8559   -3.7043 H   0  0  0  0  0  0  0  0  0  0  0  0
   -1.2186   -1.7859   -3.8381 H   0  0  0  0  0  0  0  0  0  0  0  0
   -5.7023    2.1885    2.6246 H   0  0  0  0  0  0  0  0  0  0  0  0
   -4.4039    1.3861    4.6060 H   0  0  0  0  0  0  0  0  0  0  0  0
   -2.2393    0.2325    4.1889 H   0  0  0  0  0  0  0  0  0  0  0  0
   -1.3997    0.3615    1.9351 H   0  0  0  0  0  0  0  0  0  0  0  0
   -6.4346   -0.0760   -3.4771 H   0  0  0  0  0  0  0  0  0  0  0  0
   -4.0231   -1.0704   -4.0840 H   0  0  0  0  0  0  0  0  0  0  0  0
   -4.1007    0.6920   -3.7281 H   0  0  0  0  0  0  0  0  0  0  0  0
  1  2  1  0  0  0  0
  1 42  1  0  0  0  0
  1 43  1  0  0  0  0
  1 44  1  0  0  0  0
  3  4  1  0  0  0  0
  3 16  1  0  0  0  0
  3  2  1  0  0  0  0
  3 45  1  1  0  0  0
  4 13  1  0  0  0  0
  4  5  1  0  0  0  0
  4 46  1  6  0  0  0
  5  6  1  0  0  0  0
  5  7  1  0  0  0  0
  6 47  1  0  0  0  0
  6 48  1  0  0  0  0
  6 49  1  0  0  0  0
  7  8  1  0  0  0  0
  7 12  2  0  0  0  0
  8  9  2  0  0  0  0
  8 50  1  0  0  0  0
  9 10  1  0  0  0  0
  9 51  1  0  0  0  0
 10 11  2  0  0  0  0
 10 52  1  0  0  0  0
 11 12  1  0  0  0  0
 11 53  1  0  0  0  0
 12 54  1  0  0  0  0
 13 14  1  0  0  0  0
 13 55  1  0  0  0  0
 13 56  1  0  0  0  0
 14 15  1  0  0  0  0
 14 35  1  0  0  0  0
 14 57  1  6  0  0  0
 15 16  1  0  0  0  0
 16 18  1  0  0  0  0
 16 17  1  1  0  0  0
 17 58  1  0  0  0  0
 17 59  1  0  0  0  0
 17 60  1  0  0  0  0
 18 19  1  0  0  0  0
 18 37  1  0  0  0  0
 19 20  1  0  0  0  0
 19 24  2  0  0  0  0
 20 21  2  0  0  0  0
 20 61  1  0  0  0  0
 21 22  1  0  0  0  0
 21 62  1  0  0  0  0
 22 23  2  0  0  0  0
 22 63  1  0  0  0  0
 23 24  1  0  0  0  0
 23 64  1  0  0  0  0
 24 25  1  0  0  0  0
 25 26  1  0  0  0  0
 25 37  2  0  0  0  0
 26 27  2  0  0  0  0
 26 41  1  0  0  0  0
 27 28  1  0  0  0  0
 27 38  1  0  0  0  0
 28 29  1  0  0  0  0
 28 36  2  0  0  0  0
 29 30  1  0  0  0  0
 29 34  2  0  0  0  0
 30 31  2  0  0  0  0
 30 65  1  0  0  0  0
 31 32  1  0  0  0  0
 31 66  1  0  0  0  0
 32 33  2  0  0  0  0
 32 67  1  0  0  0  0
 33 34  1  0  0  0  0
 33 68  1  0  0  0  0
 34 35  1  0  0  0  0
 35 36  1  0  0  0  0
 36 37  1  0  0  0  0
 38 40  1  0  0  0  0
 38 39  2  0  0  0  0
 40 41  1  0  0  0  0
 40 69  1  0  0  0  0
 41 70  1  0  0  0  0
 41 71  1  0  0  0  0
M  END
$$$$
