
 OpenBabel01112422573D

 66 69  0  0  0  0  0  0  0  0999 V2000
    7.9700    3.0012    4.3816 C   0  0  0  0  0  0  0  0  0  0  0  0
    7.2045    2.3880    3.3441 O   0  0  0  0  0  0  0  0  0  0  0  0
    7.2548    3.0553    2.1511 C   0  0  0  0  0  0  0  0  0  0  0  0
    7.8980    4.0761    1.9555 O   0  0  0  0  0  0  0  0  0  0  0  0
    6.4152    2.3109    1.1380 C   0  0  0  0  0  0  0  0  0  0  0  0
    6.2292    3.0365   -0.1722 C   0  0  0  0  0  0  0  0  0  0  0  0
    5.1370    3.9030   -0.3216 C   0  0  0  0  0  0  0  0  0  0  0  0
    4.9120    4.5321   -1.5369 C   0  0  0  0  0  0  0  0  0  0  0  0
    5.7892    4.3331   -2.5973 C   0  0  0  0  0  0  0  0  0  0  0  0
    6.9484    3.5584   -2.4455 C   0  0  0  0  0  0  0  0  0  0  0  0
    7.9541    3.4742   -3.4428 N   0  0  0  0  0  0  0  0  0  0  0  0
    8.0683    4.3498   -4.5026 C   0  0  0  0  0  0  0  0  0  0  0  0
    7.2645    5.2509   -4.7364 O   0  0  0  0  0  0  0  0  0  0  0  0
    9.3023    4.1830   -5.4146 C   0  0  0  0  0  0  0  0  0  0  0  0
   10.6181    4.2579   -4.5620 C   0  0  0  0  0  0  0  0  0  0  0  0
   10.8618    3.2939   -3.4568 N   0  0  0  0  0  0  0  0  0  0  0  0
   11.1266    1.9156   -3.8779 C   0  0  0  0  0  0  0  0  0  0  0  0
   12.0544    3.7433   -2.7039 C   0  0  0  0  0  0  0  0  0  0  0  0
    9.3107    5.4431   -6.3525 C   0  0  0  0  0  0  0  0  0  0  0  0
    8.2386    5.3621   -7.4466 C   0  0  0  0  0  0  0  0  0  0  0  0
    8.5772    4.1978   -8.2241 N   0  0  0  0  0  0  0  0  0  0  0  0
    8.7956    4.2185   -9.5852 C   0  0  0  0  0  0  0  0  0  0  0  0
    8.4721    3.0736  -10.2592 N   0  0  0  0  0  0  0  0  0  0  0  0
    8.6704    2.9755  -11.5811 C   0  0  0  0  0  0  0  0  0  0  0  0
    9.1854    3.8952  -12.3939 N   0  0  0  0  0  0  0  0  0  0  0  0
    9.5191    5.0040  -11.7247 C   0  0  0  0  0  0  0  0  0  0  0  0
   10.0957    6.0675  -12.3478 N   0  0  0  0  0  0  0  0  0  0  0  0
   10.3715    7.0428  -11.4335 C   0  0  0  0  0  0  0  0  0  0  0  0
    9.9589    6.6016  -10.1904 C   0  0  0  0  0  0  0  0  0  0  0  0
   10.1834    7.4287   -8.9727 C   0  0  0  0  0  0  0  0  0  0  0  0
    9.3794    5.2728  -10.3612 C   0  0  0  0  0  0  0  0  0  0  0  0
    8.3239    2.9527   -7.5115 C   0  0  0  0  0  0  0  0  0  0  0  0
    9.2532    2.9001   -6.2882 C   0  0  0  0  0  0  0  0  0  0  0  0
    7.1392    2.8820   -1.2342 C   0  0  0  0  0  0  0  0  0  0  0  0
    7.8348    2.4145    5.2942 H   0  0  0  0  0  0  0  0  0  0  0  0
    7.6173    4.0203    4.5696 H   0  0  0  0  0  0  0  0  0  0  0  0
    9.0331    2.9989    4.1211 H   0  0  0  0  0  0  0  0  0  0  0  0
    5.4260    2.1323    1.5805 H   0  0  0  0  0  0  0  0  0  0  0  0
    6.8712    1.3318    0.9542 H   0  0  0  0  0  0  0  0  0  0  0  0
    4.4575    4.0936    0.5032 H   0  0  0  0  0  0  0  0  0  0  0  0
    4.0569    5.1956   -1.6671 H   0  0  0  0  0  0  0  0  0  0  0  0
    5.5442    4.8242   -3.5298 H   0  0  0  0  0  0  0  0  0  0  0  0
    8.8009    2.9635   -3.1993 H   0  0  0  0  0  0  0  0  0  0  0  0
   10.6069    5.2569   -4.1001 H   0  0  0  0  0  0  0  0  0  0  0  0
   11.4845    4.2538   -5.2394 H   0  0  0  0  0  0  0  0  0  0  0  0
   10.2853    1.4693   -4.4007 H   0  0  0  0  0  0  0  0  0  0  0  0
   11.2579    1.2837   -2.9908 H   0  0  0  0  0  0  0  0  0  0  0  0
   12.0211    1.8249   -4.5030 H   0  0  0  0  0  0  0  0  0  0  0  0
   11.9473    4.7764   -2.3570 H   0  0  0  0  0  0  0  0  0  0  0  0
   12.9665    3.6817   -3.3127 H   0  0  0  0  0  0  0  0  0  0  0  0
   12.1987    3.1239   -1.8116 H   0  0  0  0  0  0  0  0  0  0  0  0
   10.2985    5.4996   -6.8172 H   0  0  0  0  0  0  0  0  0  0  0  0
    9.1760    6.3697   -5.7800 H   0  0  0  0  0  0  0  0  0  0  0  0
    8.1571    6.2679   -8.0382 H   0  0  0  0  0  0  0  0  0  0  0  0
    7.2314    5.2416   -7.0353 H   0  0  0  0  0  0  0  0  0  0  0  0
    8.3826    2.0348  -12.0391 H   0  0  0  0  0  0  0  0  0  0  0  0
   10.3093    6.0942  -13.3316 H   0  0  0  0  0  0  0  0  0  0  0  0
   10.8554    7.9610  -11.7343 H   0  0  0  0  0  0  0  0  0  0  0  0
   10.7974    8.3097   -9.2088 H   0  0  0  0  0  0  0  0  0  0  0  0
   10.7397    6.8732   -8.2224 H   0  0  0  0  0  0  0  0  0  0  0  0
    9.2499    7.8215   -8.5620 H   0  0  0  0  0  0  0  0  0  0  0  0
    8.5122    2.0566   -8.1138 H   0  0  0  0  0  0  0  0  0  0  0  0
    7.2769    2.9021   -7.1871 H   0  0  0  0  0  0  0  0  0  0  0  0
   10.2669    2.7057   -6.6681 H   0  0  0  0  0  0  0  0  0  0  0  0
    8.9410    2.0323   -5.7052 H   0  0  0  0  0  0  0  0  0  0  0  0
    8.0152    2.2475   -1.1004 H   0  0  0  0  0  0  0  0  0  0  0  0
  1  2  1  0  0  0  0
  1 35  1  0  0  0  0
  1 36  1  0  0  0  0
  1 37  1  0  0  0  0
  2  3  1  0  0  0  0
  3  4  2  0  0  0  0
  3  5  1  0  0  0  0
  5  6  1  0  0  0  0
  5 38  1  0  0  0  0
  5 39  1  0  0  0  0
  6  7  1  0  0  0  0
  6 34  2  0  0  0  0
  7  8  2  0  0  0  0
  7 40  1  0  0  0  0
  8  9  1  0  0  0  0
  8 41  1  0  0  0  0
  9 10  2  0  0  0  0
  9 42  1  0  0  0  0
 10 11  1  0  0  0  0
 10 34  1  0  0  0  0
 11 12  1  0  0  0  0
 11 43  1  0  0  0  0
 12 13  2  0  0  0  0
 12 14  1  0  0  0  0
 14 15  1  0  0  0  0
 14 19  1  0  0  0  0
 14 33  1  0  0  0  0
 15 16  1  0  0  0  0
 15 44  1  0  0  0  0
 15 45  1  0  0  0  0
 16 17  1  0  0  0  0
 16 18  1  0  0  0  0
 17 46  1  0  0  0  0
 17 47  1  0  0  0  0
 17 48  1  0  0  0  0
 18 49  1  0  0  0  0
 18 50  1  0  0  0  0
 18 51  1  0  0  0  0
 19 20  1  0  0  0  0
 19 52  1  0  0  0  0
 19 53  1  0  0  0  0
 20 21  1  0  0  0  0
 20 54  1  0  0  0  0
 20 55  1  0  0  0  0
 21 22  1  0  0  0  0
 21 32  1  0  0  0  0
 22 23  1  0  0  0  0
 22 31  2  0  0  0  0
 23 24  2  0  0  0  0
 24 25  1  0  0  0  0
 24 56  1  0  0  0  0
 25 26  2  0  0  0  0
 26 27  1  0  0  0  0
 26 31  1  0  0  0  0
 27 28  1  0  0  0  0
 27 57  1  0  0  0  0
 28 29  2  0  0  0  0
 28 58  1  0  0  0  0
 29 30  1  0  0  0  0
 29 31  1  0  0  0  0
 30 59  1  0  0  0  0
 30 60  1  0  0  0  0
 30 61  1  0  0  0  0
 32 33  1  0  0  0  0
 32 62  1  0  0  0  0
 32 63  1  0  0  0  0
 33 64  1  0  0  0  0
 33 65  1  0  0  0  0
 34 66  1  0  0  0  0
M  END
$$$$
