
 OpenBabel01112422563D

 63 66  0  0  0  0  0  0  0  0999 V2000
   12.3598   -0.6800    4.4898 C   0  0  0  0  0  0  0  0  0  0  0  0
   11.2716   -0.7069    3.5661 O   0  0  0  0  0  0  0  0  0  0  0  0
   11.5915   -1.1254    2.3151 C   0  0  0  0  0  0  0  0  0  0  0  0
   12.6975   -1.4772    1.9376 O   0  0  0  0  0  0  0  0  0  0  0  0
   10.3898   -1.0759    1.4348 C   0  0  0  0  0  0  0  0  0  0  0  0
    9.1353   -0.6990    1.9260 C   0  0  0  0  0  0  0  0  0  0  0  0
    8.0411   -0.6404    1.0686 C   0  0  0  0  0  0  0  0  0  0  0  0
    8.1936   -0.9415   -0.2871 C   0  0  0  0  0  0  0  0  0  0  0  0
    9.4372   -1.3079   -0.7994 C   0  0  0  0  0  0  0  0  0  0  0  0
    9.6686   -1.5714   -2.1649 N   0  0  0  0  0  0  0  0  0  0  0  0
    8.8224   -1.3457   -3.2378 C   0  0  0  0  0  0  0  0  0  0  0  0
    7.6442   -1.0063   -3.1520 O   0  0  0  0  0  0  0  0  0  0  0  0
    9.4535   -1.6539   -4.6162 C   0  0  0  0  0  0  0  0  0  0  0  0
   10.9755   -1.2188   -4.6473 C   0  0  0  0  0  0  0  0  0  0  0  0
   11.9359   -1.8099   -3.6717 N   0  0  0  0  0  0  0  0  0  0  0  0
   12.2935   -3.2167   -3.9195 C   0  0  0  0  0  0  0  0  0  0  0  0
   13.2007   -1.0491   -3.7173 C   0  0  0  0  0  0  0  0  0  0  0  0
    8.7286   -0.7777   -5.7090 C   0  0  0  0  0  0  0  0  0  0  0  0
    7.4474   -1.3801   -6.3045 C   0  0  0  0  0  0  0  0  0  0  0  0
    7.7824   -2.7516   -6.6691 N   0  0  0  0  0  0  0  0  0  0  0  0
    7.2787   -3.2975   -7.8375 C   0  0  0  0  0  0  0  0  0  0  0  0
    6.1756   -2.7254   -8.3939 N   0  0  0  0  0  0  0  0  0  0  0  0
    5.7212   -3.1639   -9.5821 C   0  0  0  0  0  0  0  0  0  0  0  0
    6.2379   -4.1214  -10.3592 N   0  0  0  0  0  0  0  0  0  0  0  0
    7.3300   -4.6571   -9.8023 C   0  0  0  0  0  0  0  0  0  0  0  0
    8.0726   -5.6211  -10.4213 N   0  0  0  0  0  0  0  0  0  0  0  0
    9.1301   -5.9643   -9.6346 C   0  0  0  0  0  0  0  0  0  0  0  0
    9.0752   -5.2084   -8.4751 C   0  0  0  0  0  0  0  0  0  0  0  0
   10.0989   -5.3205   -7.4081 C   0  0  0  0  0  0  0  0  0  0  0  0
    7.9115   -4.3468   -8.5752 C   0  0  0  0  0  0  0  0  0  0  0  0
    7.9497   -3.5800   -5.4946 C   0  0  0  0  0  0  0  0  0  0  0  0
    9.2864   -3.1675   -4.8971 C   0  0  0  0  0  0  0  0  0  0  0  0
   10.5330   -1.3911    0.0736 C   0  0  0  0  0  0  0  0  0  0  0  0
   11.9555   -0.4251    5.4743 H   0  0  0  0  0  0  0  0  0  0  0  0
   13.0807    0.0914    4.2027 H   0  0  0  0  0  0  0  0  0  0  0  0
   12.8408   -1.6599    4.5581 H   0  0  0  0  0  0  0  0  0  0  0  0
    8.9919   -0.4422    2.9739 H   0  0  0  0  0  0  0  0  0  0  0  0
    7.0646   -0.3498    1.4486 H   0  0  0  0  0  0  0  0  0  0  0  0
    7.3140   -0.8781   -0.9200 H   0  0  0  0  0  0  0  0  0  0  0  0
   10.6347   -1.8021   -2.4108 H   0  0  0  0  0  0  0  0  0  0  0  0
   10.9640   -0.1360   -4.4485 H   0  0  0  0  0  0  0  0  0  0  0  0
   11.3721   -1.3370   -5.6657 H   0  0  0  0  0  0  0  0  0  0  0  0
   11.4418   -3.8862   -3.9135 H   0  0  0  0  0  0  0  0  0  0  0  0
   12.9160   -3.5783   -3.0943 H   0  0  0  0  0  0  0  0  0  0  0  0
   12.8404   -3.3575   -4.8578 H   0  0  0  0  0  0  0  0  0  0  0  0
   13.0351    0.0143   -3.5249 H   0  0  0  0  0  0  0  0  0  0  0  0
   13.7040   -1.1503   -4.6888 H   0  0  0  0  0  0  0  0  0  0  0  0
   13.8873   -1.4084   -2.9409 H   0  0  0  0  0  0  0  0  0  0  0  0
    9.4160   -0.6260   -6.5526 H   0  0  0  0  0  0  0  0  0  0  0  0
    8.5060    0.2228   -5.3166 H   0  0  0  0  0  0  0  0  0  0  0  0
    7.1450   -0.7717   -7.1647 H   0  0  0  0  0  0  0  0  0  0  0  0
    6.6188   -1.3505   -5.5847 H   0  0  0  0  0  0  0  0  0  0  0  0
    4.8300   -2.6739   -9.9638 H   0  0  0  0  0  0  0  0  0  0  0  0
    7.8695   -5.9821  -11.3412 H   0  0  0  0  0  0  0  0  0  0  0  0
    9.8431   -6.7125   -9.9575 H   0  0  0  0  0  0  0  0  0  0  0  0
   10.7914   -6.1453   -7.6108 H   0  0  0  0  0  0  0  0  0  0  0  0
    9.6508   -5.5474   -6.4399 H   0  0  0  0  0  0  0  0  0  0  0  0
   10.6945   -4.4063   -7.3548 H   0  0  0  0  0  0  0  0  0  0  0  0
    7.9291   -4.6505   -5.7176 H   0  0  0  0  0  0  0  0  0  0  0  0
    7.1405   -3.4168   -4.7727 H   0  0  0  0  0  0  0  0  0  0  0  0
   10.0735   -3.4428   -5.5977 H   0  0  0  0  0  0  0  0  0  0  0  0
    9.4267   -3.7568   -3.9794 H   0  0  0  0  0  0  0  0  0  0  0  0
   11.5127   -1.6738   -0.3056 H   0  0  0  0  0  0  0  0  0  0  0  0
  1  2  1  0  0  0  0
  1 34  1  0  0  0  0
  1 35  1  0  0  0  0
  1 36  1  0  0  0  0
  2  3  1  0  0  0  0
  3  4  2  0  0  0  0
  3  5  1  0  0  0  0
  5  6  1  0  0  0  0
  5 33  2  0  0  0  0
  6  7  2  0  0  0  0
  6 37  1  0  0  0  0
  7  8  1  0  0  0  0
  7 38  1  0  0  0  0
  8  9  2  0  0  0  0
  8 39  1  0  0  0  0
  9 10  1  0  0  0  0
  9 33  1  0  0  0  0
 10 11  1  0  0  0  0
 10 40  1  0  0  0  0
 11 12  2  0  0  0  0
 11 13  1  0  0  0  0
 13 14  1  0  0  0  0
 13 18  1  0  0  0  0
 13 32  1  0  0  0  0
 14 15  1  0  0  0  0
 14 41  1  0  0  0  0
 14 42  1  0  0  0  0
 15 16  1  0  0  0  0
 15 17  1  0  0  0  0
 16 43  1  0  0  0  0
 16 44  1  0  0  0  0
 16 45  1  0  0  0  0
 17 46  1  0  0  0  0
 17 47  1  0  0  0  0
 17 48  1  0  0  0  0
 18 19  1  0  0  0  0
 18 49  1  0  0  0  0
 18 50  1  0  0  0  0
 19 20  1  0  0  0  0
 19 51  1  0  0  0  0
 19 52  1  0  0  0  0
 20 21  1  0  0  0  0
 20 31  1  0  0  0  0
 21 22  1  0  0  0  0
 21 30  2  0  0  0  0
 22 23  2  0  0  0  0
 23 24  1  0  0  0  0
 23 53  1  0  0  0  0
 24 25  2  0  0  0  0
 25 26  1  0  0  0  0
 25 30  1  0  0  0  0
 26 27  1  0  0  0  0
 26 54  1  0  0  0  0
 27 28  2  0  0  0  0
 27 55  1  0  0  0  0
 28 29  1  0  0  0  0
 28 30  1  0  0  0  0
 29 56  1  0  0  0  0
 29 57  1  0  0  0  0
 29 58  1  0  0  0  0
 31 32  1  0  0  0  0
 31 59  1  0  0  0  0
 31 60  1  0  0  0  0
 32 61  1  0  0  0  0
 32 62  1  0  0  0  0
 33 63  1  0  0  0  0
M  END
$$$$
