
 OpenBabel01112422403D

 44 47  0  0  0  0  0  0  0  0999 V2000
    2.1053    0.8841   -1.1635 O   0  0  0  0  0  0  0  0  0  0  0  0
    2.5507    0.1619   -0.2945 C   0  0  0  0  0  0  0  0  0  0  0  0
    1.8108   -0.9251    0.4318 C   0  0  0  0  0  0  0  0  0  0  0  0
    0.5099   -1.2710   -0.3101 C   0  0  0  0  0  0  0  0  0  0  0  0
   -0.1804   -2.4254    0.3727 C   0  0  0  0  0  0  0  0  0  0  0  0
   -1.0839   -2.1886    1.4132 C   0  0  0  0  0  0  0  0  0  0  0  0
   -1.7012   -3.2561    2.0668 C   0  0  0  0  0  0  0  0  0  0  0  0
   -1.4017   -4.5657    1.6906 C   0  0  0  0  0  0  0  0  0  0  0  0
   -0.4856   -4.8146    0.6755 C   0  0  0  0  0  0  0  0  0  0  0  0
    0.1349   -3.7450    0.0214 C   0  0  0  0  0  0  0  0  0  0  0  0
    3.7605    0.5325    0.3320 N   0  0  0  0  0  0  0  0  0  0  0  0
    3.9982    1.8223    0.7940 C   0  0  0  0  0  0  0  0  0  0  0  0
    3.3889    3.0639    0.5620 C   0  0  0  0  0  0  0  0  0  0  0  0
    3.4054    3.9454    1.6404 C   0  0  0  0  0  0  0  0  0  0  0  0
    2.8120    5.1748    1.5546 O   0  0  0  0  0  0  0  0  0  0  0  0
    3.9713    3.5879    2.8604 C   0  0  0  0  0  0  0  0  0  0  0  0
    3.6702    4.3103    3.9789 O   0  0  0  0  0  0  0  0  0  0  0  0
    4.8284    2.4971    2.9547 C   0  0  0  0  0  0  0  0  0  0  0  0
    4.9109    1.6507    1.8379 C   0  0  0  0  0  0  0  0  0  0  0  0
    5.7400    0.6144    1.3548 C   0  0  0  0  0  0  0  0  0  0  0  0
    7.1049    0.2885    1.3998 C   0  0  0  0  0  0  0  0  0  0  0  0
    7.5282   -0.9587    0.9388 C   0  0  0  0  0  0  0  0  0  0  0  0
    6.5696   -1.9212    0.6524 C   0  0  0  0  0  0  0  0  0  0  0  0
    6.9049   -3.2245    0.4031 O   0  0  0  0  0  0  0  0  0  0  0  0
    5.2130   -1.6020    0.5621 C   0  0  0  0  0  0  0  0  0  0  0  0
    4.3327   -2.6202    0.3437 O   0  0  0  0  0  0  0  0  0  0  0  0
    4.8410   -0.2642    0.7241 C   0  0  0  0  0  0  0  0  0  0  0  0
    1.5620   -0.5634    1.4467 H   0  0  0  0  0  0  0  0  0  0  0  0
    2.3767   -1.8152    0.5306 H   0  0  0  0  0  0  0  0  0  0  0  0
    0.7254   -1.5397   -1.3501 H   0  0  0  0  0  0  0  0  0  0  0  0
   -0.1658   -0.4060   -0.3556 H   0  0  0  0  0  0  0  0  0  0  0  0
   -1.3102   -1.1714    1.7231 H   0  0  0  0  0  0  0  0  0  0  0  0
   -2.4063   -3.0643    2.8685 H   0  0  0  0  0  0  0  0  0  0  0  0
   -1.8887   -5.3960    2.1970 H   0  0  0  0  0  0  0  0  0  0  0  0
   -0.2409   -5.8330    0.3960 H   0  0  0  0  0  0  0  0  0  0  0  0
    0.8656   -3.9485   -0.7577 H   0  0  0  0  0  0  0  0  0  0  0  0
    2.8336    3.2680   -0.3462 H   0  0  0  0  0  0  0  0  0  0  0  0
    2.9921    5.5005    0.6532 H   0  0  0  0  0  0  0  0  0  0  0  0
    2.9581    4.9165    3.6893 H   0  0  0  0  0  0  0  0  0  0  0  0
    5.3145    2.2451    3.8953 H   0  0  0  0  0  0  0  0  0  0  0  0
    7.8374    1.0395    1.6930 H   0  0  0  0  0  0  0  0  0  0  0  0
    8.5887   -1.1792    0.8619 H   0  0  0  0  0  0  0  0  0  0  0  0
    7.8737   -3.2989    0.4353 H   0  0  0  0  0  0  0  0  0  0  0  0
    4.8447   -3.4319    0.5431 H   0  0  0  0  0  0  0  0  0  0  0  0
  1  2  2  0  0  0  0
  2  3  1  0  0  0  0
  2 11  1  0  0  0  0
  3  4  1  0  0  0  0
  3 28  1  0  0  0  0
  3 29  1  0  0  0  0
  4  5  1  0  0  0  0
  4 30  1  0  0  0  0
  4 31  1  0  0  0  0
  5  6  1  0  0  0  0
  5 10  2  0  0  0  0
  6  7  2  0  0  0  0
  6 32  1  0  0  0  0
  7  8  1  0  0  0  0
  7 33  1  0  0  0  0
  8  9  2  0  0  0  0
  8 34  1  0  0  0  0
  9 10  1  0  0  0  0
  9 35  1  0  0  0  0
 10 36  1  0  0  0  0
 11 12  1  0  0  0  0
 11 27  1  0  0  0  0
 12 13  1  0  0  0  0
 12 19  2  0  0  0  0
 13 14  2  0  0  0  0
 13 37  1  0  0  0  0
 14 15  1  0  0  0  0
 14 16  1  0  0  0  0
 15 38  1  0  0  0  0
 16 17  1  0  0  0  0
 16 18  2  0  0  0  0
 17 39  1  0  0  0  0
 18 19  1  0  0  0  0
 18 40  1  0  0  0  0
 19 20  1  0  0  0  0
 20 21  1  0  0  0  0
 20 27  2  0  0  0  0
 21 22  2  0  0  0  0
 21 41  1  0  0  0  0
 22 23  1  0  0  0  0
 22 42  1  0  0  0  0
 23 24  1  0  0  0  0
 23 25  2  0  0  0  0
 24 43  1  0  0  0  0
 25 26  1  0  0  0  0
 25 27  1  0  0  0  0
 26 44  1  0  0  0  0
M  END
$$$$
