
 OpenBabel01112422333D

 55 60  0  0  0  0  0  0  0  0999 V2000
    1.0298    0.6299   -0.0075 C   0  0  0  0  0  0  0  0  0  0  0  0
    2.4437    0.2661   -0.3691 C   0  0  0  0  0  0  0  0  0  0  0  0
    3.0927    1.3878   -0.8908 C   0  0  0  0  0  0  0  0  0  0  0  0
    4.4173    1.5767   -0.5491 C   0  0  0  0  0  0  0  0  0  0  0  0
    5.1560    2.7760   -0.5412 C   0  0  0  0  0  0  0  0  0  0  0  0
    5.9418    2.5911    0.5588 C   0  0  0  0  0  0  0  0  0  0  0  0
    6.2958    1.2495    0.4592 N   0  0  0  0  0  0  0  0  0  0  0  0
    7.7221    1.0252    0.4715 C   0  0  0  0  0  0  0  0  0  0  0  0
    5.1788    0.5331    0.0110 C   0  0  0  0  0  0  0  0  0  0  0  0
    4.6308   -0.8107   -0.0102 C   0  0  0  0  0  0  0  0  0  0  0  0
    5.3620   -2.0142    0.0982 C   0  0  0  0  0  0  0  0  0  0  0  0
    4.7916   -3.3335    0.2023 C   0  0  0  0  0  0  0  0  0  0  0  0
    3.3929   -3.4368    0.1575 C   0  0  0  0  0  0  0  0  0  0  0  0
    2.7217   -4.6740    0.1289 C   0  0  0  0  0  0  0  0  0  0  0  0
    3.0007   -6.0662    0.1316 C   0  0  0  0  0  0  0  0  0  0  0  0
    1.9802   -7.0278    0.0679 C   0  0  0  0  0  0  0  0  0  0  0  0
    0.6634   -6.6355   -0.0106 C   0  0  0  0  0  0  0  0  0  0  0  0
    0.3497   -5.2815   -0.0405 C   0  0  0  0  0  0  0  0  0  0  0  0
    1.3690   -4.2934    0.0346 C   0  0  0  0  0  0  0  0  0  0  0  0
    1.3116   -2.9055    0.0352 N   0  0  0  0  0  0  0  0  0  0  0  0
    0.0785   -2.1510   -0.0136 C   0  0  0  0  0  0  0  0  0  0  0  0
   -1.2685   -2.6212    0.5363 C   0  0  0  0  0  0  0  0  0  0  0  0
   -2.3065   -1.4972    0.4244 C   0  0  0  0  0  0  0  0  0  0  0  0
   -3.6439   -1.9361    1.0013 C   0  0  0  0  0  0  0  0  0  0  0  0
   -4.6150   -0.9256    0.7846 O   0  0  0  0  0  0  0  0  0  0  0  0
    2.6060   -2.3156    0.0422 C   0  0  0  0  0  0  0  0  0  0  0  0
    3.1703   -0.9468   -0.1059 C   0  0  0  0  0  0  0  0  0  0  0  0
    5.8623   -4.3079    0.2802 C   0  0  0  0  0  0  0  0  0  0  0  0
    5.9393   -5.5294    0.2367 O   0  0  0  0  0  0  0  0  0  0  0  0
    6.9753   -3.5271    0.3295 N   0  0  0  0  0  0  0  0  0  0  0  0
    6.7754   -2.2198   -0.0224 C   0  0  0  0  0  0  0  0  0  0  0  0
    7.6967   -1.5527   -0.4752 O   0  0  0  0  0  0  0  0  0  0  0  0
    0.8769    1.7182    0.0051 H   0  0  0  0  0  0  0  0  0  0  0  0
    0.8278    0.3656    1.0351 H   0  0  0  0  0  0  0  0  0  0  0  0
    0.3119    0.2528   -0.7299 H   0  0  0  0  0  0  0  0  0  0  0  0
    2.5355    2.2693   -1.2022 H   0  0  0  0  0  0  0  0  0  0  0  0
    4.8951    3.7227   -0.9907 H   0  0  0  0  0  0  0  0  0  0  0  0
    6.4899    3.2905    1.1761 H   0  0  0  0  0  0  0  0  0  0  0  0
    8.0026    0.0839    0.9142 H   0  0  0  0  0  0  0  0  0  0  0  0
    8.1871    1.8120    1.0843 H   0  0  0  0  0  0  0  0  0  0  0  0
    8.0690    1.1775   -0.5580 H   0  0  0  0  0  0  0  0  0  0  0  0
    4.0087   -6.4521    0.1634 H   0  0  0  0  0  0  0  0  0  0  0  0
    2.2293   -8.0862    0.0654 H   0  0  0  0  0  0  0  0  0  0  0  0
   -0.1320   -7.3763   -0.0649 H   0  0  0  0  0  0  0  0  0  0  0  0
   -0.6952   -5.0382   -0.1432 H   0  0  0  0  0  0  0  0  0  0  0  0
   -0.0294   -1.8097   -1.0479 H   0  0  0  0  0  0  0  0  0  0  0  0
    0.2908   -1.3558    0.6769 H   0  0  0  0  0  0  0  0  0  0  0  0
   -1.1527   -2.9242    1.5838 H   0  0  0  0  0  0  0  0  0  0  0  0
   -1.6718   -3.4571   -0.0281 H   0  0  0  0  0  0  0  0  0  0  0  0
   -2.4433   -1.2164   -0.6286 H   0  0  0  0  0  0  0  0  0  0  0  0
   -1.9614   -0.5868    0.9301 H   0  0  0  0  0  0  0  0  0  0  0  0
   -3.5660   -2.1302    2.0756 H   0  0  0  0  0  0  0  0  0  0  0  0
   -3.9942   -2.8494    0.5104 H   0  0  0  0  0  0  0  0  0  0  0  0
   -4.3492   -0.1445    1.2991 H   0  0  0  0  0  0  0  0  0  0  0  0
    7.8675   -3.9600    0.1824 H   0  0  0  0  0  0  0  0  0  0  0  0
  1  2  1  0  0  0  0
  1 33  1  0  0  0  0
  1 34  1  0  0  0  0
  1 35  1  0  0  0  0
  2  3  1  0  0  0  0
  2 27  2  0  0  0  0
  3  4  2  0  0  0  0
  3 36  1  0  0  0  0
  4  5  1  0  0  0  0
  4  9  1  0  0  0  0
  5  6  2  0  0  0  0
  5 37  1  0  0  0  0
  6  7  1  0  0  0  0
  6 38  1  0  0  0  0
  7  8  1  0  0  0  0
  7  9  1  0  0  0  0
  8 39  1  0  0  0  0
  8 40  1  0  0  0  0
  8 41  1  0  0  0  0
  9 10  2  0  0  0  0
 10 11  1  0  0  0  0
 10 27  1  0  0  0  0
 11 12  2  0  0  0  0
 11 31  1  0  0  0  0
 12 13  1  0  0  0  0
 12 28  1  0  0  0  0
 13 14  1  0  0  0  0
 13 26  2  0  0  0  0
 14 15  1  0  0  0  0
 14 19  2  0  0  0  0
 15 16  2  0  0  0  0
 15 42  1  0  0  0  0
 16 17  1  0  0  0  0
 16 43  1  0  0  0  0
 17 18  2  0  0  0  0
 17 44  1  0  0  0  0
 18 19  1  0  0  0  0
 18 45  1  0  0  0  0
 19 20  1  0  0  0  0
 20 21  1  0  0  0  0
 20 26  1  0  0  0  0
 21 22  1  0  0  0  0
 21 46  1  0  0  0  0
 21 47  1  0  0  0  0
 22 23  1  0  0  0  0
 22 48  1  0  0  0  0
 22 49  1  0  0  0  0
 23 24  1  0  0  0  0
 23 50  1  0  0  0  0
 23 51  1  0  0  0  0
 24 25  1  0  0  0  0
 24 52  1  0  0  0  0
 24 53  1  0  0  0  0
 25 54  1  0  0  0  0
 26 27  1  0  0  0  0
 28 29  2  0  0  0  0
 28 30  1  0  0  0  0
 30 31  1  0  0  0  0
 30 55  1  0  0  0  0
 31 32  2  0  0  0  0
M  END
$$$$
