
 OpenBabel01112422533D

 49 52  0  0  1  0  0  0  0  0999 V2000
    7.3758   -2.9953   -0.3798 C   0  0  0  0  0  0  0  0  0  0  0  0
    6.1112   -3.4109   -0.2770 C   0  0  0  0  0  0  0  0  0  0  0  0
    5.2436   -3.1341    0.8321 C   0  0  0  0  0  0  0  0  0  0  0  0
    5.5756   -2.3928    1.8979 N   0  0  0  0  0  0  0  0  0  0  0  0
    4.4597   -2.3517    2.6402 N   0  0  0  0  0  0  0  0  0  0  0  0
    3.4123   -3.0437    2.1081 C   0  0  0  0  0  0  0  0  0  0  0  0
    2.1065   -3.2361    2.5281 C   0  0  0  0  0  0  0  0  0  0  0  0
    1.2976   -4.0294    1.7842 N   0  0  0  0  0  0  0  0  0  0  0  0
    1.7657   -4.6077    0.6470 C   0  0  0  0  0  0  0  0  0  0  0  0
    0.8192   -5.4380   -0.0989 C   0  0  0  0  0  0  0  0  0  0  0  0
   -0.1894   -6.1665    0.5256 C   0  0  0  0  0  0  0  0  0  0  0  0
   -1.1157   -6.9124   -0.1287 N   0  0  0  0  0  0  0  0  0  0  0  0
   -1.0478   -6.9177   -1.4834 C   0  0  0  0  0  0  0  0  0  0  0  0
   -0.0781   -6.2472   -2.2075 C   0  0  0  0  0  0  0  0  0  0  0  0
    0.0850   -6.2314   -3.5577 O   0  0  0  0  0  0  0  0  0  0  0  0
   -1.1119   -6.3088   -4.3376 C   0  0  0  0  0  0  0  0  0  0  0  0
   -0.7081   -6.2246   -5.8269 C   0  0  1  0  0  0  0  0  0  0  0  0
    0.2047   -7.3323   -6.1757 N   0  0  0  0  0  0  0  0  0  0  0  0
   -1.9699   -6.2140   -6.7155 C   0  0  0  0  0  0  0  0  0  0  0  0
   -1.6915   -6.1345   -8.1994 C   0  0  0  0  0  0  0  0  0  0  0  0
   -2.1379   -7.1460   -9.0617 C   0  0  0  0  0  0  0  0  0  0  0  0
   -1.8662   -7.0818  -10.4295 C   0  0  0  0  0  0  0  0  0  0  0  0
   -1.1524   -6.0042  -10.9496 C   0  0  0  0  0  0  0  0  0  0  0  0
   -0.7157   -4.9866  -10.1043 C   0  0  0  0  0  0  0  0  0  0  0  0
   -0.9873   -5.0485   -8.7376 C   0  0  0  0  0  0  0  0  0  0  0  0
    0.8697   -5.5264   -1.4969 C   0  0  0  0  0  0  0  0  0  0  0  0
    3.0623   -4.4132    0.1796 C   0  0  0  0  0  0  0  0  0  0  0  0
    3.9025   -3.5992    0.9386 C   0  0  0  0  0  0  0  0  0  0  0  0
    7.9698   -3.2166   -1.2603 H   0  0  0  0  0  0  0  0  0  0  0  0
    7.8385   -2.4038    0.4077 H   0  0  0  0  0  0  0  0  0  0  0  0
    5.6982   -3.9885   -1.1030 H   0  0  0  0  0  0  0  0  0  0  0  0
    4.4829   -1.8310    3.5076 H   0  0  0  0  0  0  0  0  0  0  0  0
    1.6850   -2.7996    3.4254 H   0  0  0  0  0  0  0  0  0  0  0  0
   -0.2799   -6.1765    1.6107 H   0  0  0  0  0  0  0  0  0  0  0  0
   -1.8208   -7.5110   -1.9564 H   0  0  0  0  0  0  0  0  0  0  0  0
   -1.7701   -5.4685   -4.0836 H   0  0  0  0  0  0  0  0  0  0  0  0
   -1.6316   -7.2554   -4.1509 H   0  0  0  0  0  0  0  0  0  0  0  0
   -0.1406   -5.2970   -5.9758 H   0  0  0  0  0  0  0  0  0  0  0  0
   -0.2647   -8.2267   -6.0501 H   0  0  0  0  0  0  0  0  0  0  0  0
    0.9842   -7.3250   -5.5155 H   0  0  0  0  0  0  0  0  0  0  0  0
   -2.5971   -5.3528   -6.4488 H   0  0  0  0  0  0  0  0  0  0  0  0
   -2.5739   -7.1049   -6.4991 H   0  0  0  0  0  0  0  0  0  0  0  0
   -2.6916   -7.9977   -8.6741 H   0  0  0  0  0  0  0  0  0  0  0  0
   -2.2080   -7.8752  -11.0886 H   0  0  0  0  0  0  0  0  0  0  0  0
   -0.9347   -5.9577  -12.0128 H   0  0  0  0  0  0  0  0  0  0  0  0
   -0.1591   -4.1453  -10.5075 H   0  0  0  0  0  0  0  0  0  0  0  0
   -0.6333   -4.2483   -8.0929 H   0  0  0  0  0  0  0  0  0  0  0  0
    1.6316   -4.9945   -2.0622 H   0  0  0  0  0  0  0  0  0  0  0  0
    3.4239   -4.8865   -0.7238 H   0  0  0  0  0  0  0  0  0  0  0  0
  1  2  2  0  0  0  0
  1 29  1  0  0  0  0
  1 30  1  0  0  0  0
  2  3  1  0  0  0  0
  2 31  1  0  0  0  0
  3  4  2  0  0  0  0
  3 28  1  0  0  0  0
  4  5  1  0  0  0  0
  5  6  1  0  0  0  0
  5 32  1  0  0  0  0
  6  7  1  0  0  0  0
  6 28  2  0  0  0  0
  7  8  2  0  0  0  0
  7 33  1  0  0  0  0
  8  9  1  0  0  0  0
  9 10  1  0  0  0  0
  9 27  2  0  0  0  0
 10 11  1  0  0  0  0
 10 26  2  0  0  0  0
 11 12  2  0  0  0  0
 11 34  1  0  0  0  0
 12 13  1  0  0  0  0
 13 14  2  0  0  0  0
 13 35  1  0  0  0  0
 14 15  1  0  0  0  0
 14 26  1  0  0  0  0
 15 16  1  0  0  0  0
 16 17  1  0  0  0  0
 16 36  1  0  0  0  0
 16 37  1  0  0  0  0
 17 18  1  0  0  0  0
 17 19  1  0  0  0  0
 17 38  1  6  0  0  0
 18 39  1  0  0  0  0
 18 40  1  0  0  0  0
 19 20  1  0  0  0  0
 19 41  1  0  0  0  0
 19 42  1  0  0  0  0
 20 21  1  0  0  0  0
 20 25  2  0  0  0  0
 21 22  2  0  0  0  0
 21 43  1  0  0  0  0
 22 23  1  0  0  0  0
 22 44  1  0  0  0  0
 23 24  2  0  0  0  0
 23 45  1  0  0  0  0
 24 25  1  0  0  0  0
 24 46  1  0  0  0  0
 25 47  1  0  0  0  0
 26 48  1  0  0  0  0
 27 28  1  0  0  0  0
 27 49  1  0  0  0  0
M  END
$$$$
