
 OpenBabel01112422163D

 70 77  0  0  1  0  0  0  0  0999 V2000
    7.6614   -0.1253    1.2647 C   0  0  0  0  0  0  0  0  0  0  0  0
    6.3552   -0.2221    0.7029 O   0  0  0  0  0  0  0  0  0  0  0  0
    6.0509    0.7323   -0.2250 C   0  0  0  0  0  0  0  0  0  0  0  0
    6.8125    1.5904   -0.6301 O   0  0  0  0  0  0  0  0  0  0  0  0
    4.6173    0.5587   -0.7130 C   0  0  0  0  0  0  0  0  0  0  0  0
    3.6786    0.6480    0.4153 N   0  0  0  0  0  0  0  0  0  0  0  0
    3.5517    2.0001    0.9408 C   0  0  0  0  0  0  0  0  0  0  0  0
    2.4705   -0.1784    0.2637 C   0  0  1  0  0  0  0  0  0  0  0  0
    1.4855    0.0287    1.3951 C   0  0  0  0  0  0  0  0  0  0  0  0
    0.4117   -1.0447    1.3951 C   0  0  2  0  0  0  0  0  0  0  0  0
    0.4291   -1.9226    0.2808 O   0  0  0  0  0  0  0  0  0  0  0  0
    0.5269   -1.3151   -1.0232 C   0  0  2  0  0  0  0  0  0  0  0  0
    0.9057   -2.5539   -1.8886 C   0  0  0  0  0  0  0  0  0  0  0  0
    1.7248   -0.2803   -1.1096 C   0  0  1  0  0  0  0  0  0  0  0  0
    1.5713    0.9473   -1.8320 O   0  0  0  0  0  0  0  0  0  0  0  0
    0.5483    1.8587   -1.4827 C   0  0  0  0  0  0  0  0  0  0  0  0
   -0.8022   -0.8686   -1.3982 N   0  0  0  0  0  0  0  0  0  0  0  0
   -1.4299   -0.9146   -2.6617 C   0  0  0  0  0  0  0  0  0  0  0  0
   -0.9039   -0.9130   -3.9611 C   0  0  0  0  0  0  0  0  0  0  0  0
   -1.7219   -1.3768   -4.9953 C   0  0  0  0  0  0  0  0  0  0  0  0
   -3.0022   -1.8552   -4.7330 C   0  0  0  0  0  0  0  0  0  0  0  0
   -3.6067   -1.6110   -3.4990 C   0  0  0  0  0  0  0  0  0  0  0  0
   -2.8592   -0.9854   -2.4883 C   0  0  0  0  0  0  0  0  0  0  0  0
   -3.1167   -0.3830   -1.2524 C   0  0  0  0  0  0  0  0  0  0  0  0
   -4.2733    0.2836   -0.8302 C   0  0  0  0  0  0  0  0  0  0  0  0
   -4.1777    0.8651    0.4583 C   0  0  0  0  0  0  0  0  0  0  0  0
   -2.9652    0.5734    1.1126 C   0  0  0  0  0  0  0  0  0  0  0  0
   -2.5082    1.0290    2.3719 C   0  0  0  0  0  0  0  0  0  0  0  0
   -2.8657    2.0480    3.2786 C   0  0  0  0  0  0  0  0  0  0  0  0
   -2.2083    2.1500    4.5118 C   0  0  0  0  0  0  0  0  0  0  0  0
   -1.2718    1.1998    4.9029 C   0  0  0  0  0  0  0  0  0  0  0  0
   -0.8359    0.2206    4.0141 C   0  0  0  0  0  0  0  0  0  0  0  0
   -1.3634    0.2204    2.7124 C   0  0  0  0  0  0  0  0  0  0  0  0
   -0.8847   -0.4462    1.5690 N   0  0  0  0  0  0  0  0  0  0  0  0
   -1.8577   -0.1616    0.6849 C   0  0  0  0  0  0  0  0  0  0  0  0
   -1.8676   -0.5149   -0.6381 C   0  0  0  0  0  0  0  0  0  0  0  0
   -5.3868    1.5630    0.7453 C   0  0  0  0  0  0  0  0  0  0  0  0
   -5.8036    2.1688    1.7225 O   0  0  0  0  0  0  0  0  0  0  0  0
   -6.1389    1.3996   -0.4223 N   0  0  0  0  0  0  0  0  0  0  0  0
   -5.4917    0.6861   -1.5173 C   0  0  0  0  0  0  0  0  0  0  0  0
    7.9278   -1.1095    1.6594 H   0  0  0  0  0  0  0  0  0  0  0  0
    8.4105    0.1573    0.5195 H   0  0  0  0  0  0  0  0  0  0  0  0
    7.6503    0.5912    2.0912 H   0  0  0  0  0  0  0  0  0  0  0  0
    4.3942    1.3046   -1.4843 H   0  0  0  0  0  0  0  0  0  0  0  0
    4.5881   -0.4286   -1.1891 H   0  0  0  0  0  0  0  0  0  0  0  0
    2.9638    2.0349    1.8639 H   0  0  0  0  0  0  0  0  0  0  0  0
    4.5348    2.3842    1.2395 H   0  0  0  0  0  0  0  0  0  0  0  0
    3.1128    2.6946    0.2203 H   0  0  0  0  0  0  0  0  0  0  0  0
    2.8600   -1.1954    0.4289 H   0  0  0  0  0  0  0  0  0  0  0  0
    1.9956   -0.0032    2.3669 H   0  0  0  0  0  0  0  0  0  0  0  0
    1.0409    1.0293    1.3435 H   0  0  0  0  0  0  0  0  0  0  0  0
    0.5602   -1.6935    2.2653 H   0  0  0  0  0  0  0  0  0  0  0  0
    1.2511   -2.2781   -2.8910 H   0  0  0  0  0  0  0  0  0  0  0  0
    1.7042   -3.1315   -1.4085 H   0  0  0  0  0  0  0  0  0  0  0  0
    0.0584   -3.2424   -2.0003 H   0  0  0  0  0  0  0  0  0  0  0  0
    2.4665   -0.7758   -1.7492 H   0  0  0  0  0  0  0  0  0  0  0  0
    0.3657    1.9136   -0.4123 H   0  0  0  0  0  0  0  0  0  0  0  0
    0.8559    2.8512   -1.8277 H   0  0  0  0  0  0  0  0  0  0  0  0
   -0.3734    1.6283   -2.0197 H   0  0  0  0  0  0  0  0  0  0  0  0
    0.1147   -0.5940   -4.1614 H   0  0  0  0  0  0  0  0  0  0  0  0
   -1.3299   -1.4190   -6.0088 H   0  0  0  0  0  0  0  0  0  0  0  0
   -3.5506   -2.3882   -5.5050 H   0  0  0  0  0  0  0  0  0  0  0  0
   -4.6141   -1.9634   -3.2979 H   0  0  0  0  0  0  0  0  0  0  0  0
   -3.6085    2.7923    3.0035 H   0  0  0  0  0  0  0  0  0  0  0  0
   -2.4501    2.9715    5.1813 H   0  0  0  0  0  0  0  0  0  0  0  0
   -0.8428    1.2399    5.9009 H   0  0  0  0  0  0  0  0  0  0  0  0
   -0.0791   -0.4967    4.3177 H   0  0  0  0  0  0  0  0  0  0  0  0
   -7.0724    1.7815   -0.4676 H   0  0  0  0  0  0  0  0  0  0  0  0
   -5.2836    1.4054   -2.3158 H   0  0  0  0  0  0  0  0  0  0  0  0
   -6.1107   -0.1419   -1.8591 H   0  0  0  0  0  0  0  0  0  0  0  0
  1  2  1  0  0  0  0
  1 41  1  0  0  0  0
  1 42  1  0  0  0  0
  1 43  1  0  0  0  0
  2  3  1  0  0  0  0
  3  4  2  0  0  0  0
  3  5  1  0  0  0  0
  5  6  1  0  0  0  0
  5 44  1  0  0  0  0
  5 45  1  0  0  0  0
  6  7  1  0  0  0  0
  6  8  1  0  0  0  0
  7 46  1  0  0  0  0
  7 47  1  0  0  0  0
  7 48  1  0  0  0  0
  8  9  1  0  0  0  0
  8 14  1  0  0  0  0
  8 49  1  1  0  0  0
  9 10  1  0  0  0  0
  9 50  1  0  0  0  0
  9 51  1  0  0  0  0
 10 11  1  0  0  0  0
 10 34  1  0  0  0  0
 10 52  1  1  0  0  0
 11 12  1  0  0  0  0
 12 13  1  6  0  0  0
 12 14  1  0  0  0  0
 12 17  1  0  0  0  0
 13 53  1  0  0  0  0
 13 54  1  0  0  0  0
 13 55  1  0  0  0  0
 14 15  1  0  0  0  0
 14 56  1  6  0  0  0
 15 16  1  0  0  0  0
 16 57  1  0  0  0  0
 16 58  1  0  0  0  0
 16 59  1  0  0  0  0
 17 18  1  0  0  0  0
 17 36  1  0  0  0  0
 18 19  1  0  0  0  0
 18 23  2  0  0  0  0
 19 20  2  0  0  0  0
 19 60  1  0  0  0  0
 20 21  1  0  0  0  0
 20 61  1  0  0  0  0
 21 22  2  0  0  0  0
 21 62  1  0  0  0  0
 22 23  1  0  0  0  0
 22 63  1  0  0  0  0
 23 24  1  0  0  0  0
 24 25  1  0  0  0  0
 24 36  2  0  0  0  0
 25 26  2  0  0  0  0
 25 40  1  0  0  0  0
 26 27  1  0  0  0  0
 26 37  1  0  0  0  0
 27 28  1  0  0  0  0
 27 35  2  0  0  0  0
 28 29  1  0  0  0  0
 28 33  2  0  0  0  0
 29 30  2  0  0  0  0
 29 64  1  0  0  0  0
 30 31  1  0  0  0  0
 30 65  1  0  0  0  0
 31 32  2  0  0  0  0
 31 66  1  0  0  0  0
 32 33  1  0  0  0  0
 32 67  1  0  0  0  0
 33 34  1  0  0  0  0
 34 35  1  0  0  0  0
 35 36  1  0  0  0  0
 37 38  2  0  0  0  0
 37 39  1  0  0  0  0
 39 40  1  0  0  0  0
 39 68  1  0  0  0  0
 40 69  1  0  0  0  0
 40 70  1  0  0  0  0
M  END
$$$$
