
 OpenBabel01112422423D

 43 46  0  0  0  0  0  0  0  0999 V2000
    1.0179    0.2340    0.1953 O   0  0  0  0  0  0  0  0  0  0  0  0
    2.2395    0.1505    0.0528 C   0  0  0  0  0  0  0  0  0  0  0  0
    3.0125    1.4054    0.0024 C   0  0  0  0  0  0  0  0  0  0  0  0
    2.3262    2.6332   -0.0053 C   0  0  0  0  0  0  0  0  0  0  0  0
    0.9574    2.7527    0.0500 O   0  0  0  0  0  0  0  0  0  0  0  0
    3.0324    3.8243   -0.0821 C   0  0  0  0  0  0  0  0  0  0  0  0
    2.3643    5.0139   -0.1183 O   0  0  0  0  0  0  0  0  0  0  0  0
    4.4120    3.8223   -0.1356 C   0  0  0  0  0  0  0  0  0  0  0  0
    5.0970    2.6017   -0.1225 C   0  0  0  0  0  0  0  0  0  0  0  0
    4.4179    1.3622   -0.0588 C   0  0  0  0  0  0  0  0  0  0  0  0
    5.1087    0.0541   -0.0718 C   0  0  0  0  0  0  0  0  0  0  0  0
    6.5210   -0.0526   -0.0648 C   0  0  0  0  0  0  0  0  0  0  0  0
    7.1448   -1.2943   -0.0927 C   0  0  0  0  0  0  0  0  0  0  0  0
    8.5052   -1.4271   -0.0877 O   0  0  0  0  0  0  0  0  0  0  0  0
    6.3855   -2.4497   -0.1255 C   0  0  0  0  0  0  0  0  0  0  0  0
    6.9978   -3.6701   -0.1496 O   0  0  0  0  0  0  0  0  0  0  0  0
    5.0012   -2.3870   -0.1294 C   0  0  0  0  0  0  0  0  0  0  0  0
    4.3433   -1.1431   -0.0994 C   0  0  0  0  0  0  0  0  0  0  0  0
    2.9123   -1.0626   -0.0654 N   0  0  0  0  0  0  0  0  0  0  0  0
    2.0800   -2.2694   -0.0966 C   0  0  0  0  0  0  0  0  0  0  0  0
    1.9473   -3.0016    1.2251 C   0  0  0  0  0  0  0  0  0  0  0  0
    2.3827   -2.4556    2.4434 C   0  0  0  0  0  0  0  0  0  0  0  0
    2.3523   -3.2111    3.6170 C   0  0  0  0  0  0  0  0  0  0  0  0
    1.8560   -4.5178    3.5814 C   0  0  0  0  0  0  0  0  0  0  0  0
    1.9297   -5.3538    4.7847 N   0  3  0  0  0  0  0  0  0  0  0  0
    2.4675   -4.8701    5.7913 O   0  0  0  0  0  0  0  0  0  0  0  0
    1.4678   -6.5020    4.7185 O   0  5  0  0  0  0  0  0  0  0  0  0
    1.3313   -5.0472    2.3971 C   0  0  0  0  0  0  0  0  0  0  0  0
    1.3758   -4.2860    1.2265 C   0  0  0  0  0  0  0  0  0  0  0  0
    0.5859    1.8434    0.1431 H   0  0  0  0  0  0  0  0  0  0  0  0
    1.4172    4.7638   -0.0931 H   0  0  0  0  0  0  0  0  0  0  0  0
    4.9548    4.7614   -0.1951 H   0  0  0  0  0  0  0  0  0  0  0  0
    6.1797    2.6584   -0.1773 H   0  0  0  0  0  0  0  0  0  0  0  0
    7.1472    0.8315   -0.0324 H   0  0  0  0  0  0  0  0  0  0  0  0
    8.9085   -0.5421   -0.0605 H   0  0  0  0  0  0  0  0  0  0  0  0
    7.9561   -3.4709   -0.1319 H   0  0  0  0  0  0  0  0  0  0  0  0
    4.4676   -3.3314   -0.1352 H   0  0  0  0  0  0  0  0  0  0  0  0
    2.4766   -2.9452   -0.8658 H   0  0  0  0  0  0  0  0  0  0  0  0
    1.0693   -2.0093   -0.4387 H   0  0  0  0  0  0  0  0  0  0  0  0
    2.7837   -1.4456    2.4917 H   0  0  0  0  0  0  0  0  0  0  0  0
    2.7382   -2.7743    4.5356 H   0  0  0  0  0  0  0  0  0  0  0  0
    0.9116   -6.0505    2.3624 H   0  0  0  0  0  0  0  0  0  0  0  0
    0.9841   -4.7129    0.3041 H   0  0  0  0  0  0  0  0  0  0  0  0
  1  2  2  0  0  0  0
  2  3  1  0  0  0  0
  2 19  1  0  0  0  0
  3  4  1  0  0  0  0
  3 10  2  0  0  0  0
  4  5  1  0  0  0  0
  4  6  2  0  0  0  0
  5 30  1  0  0  0  0
  6  7  1  0  0  0  0
  6  8  1  0  0  0  0
  7 31  1  0  0  0  0
  8  9  2  0  0  0  0
  8 32  1  0  0  0  0
  9 10  1  0  0  0  0
  9 33  1  0  0  0  0
 10 11  1  0  0  0  0
 11 12  1  0  0  0  0
 11 18  2  0  0  0  0
 12 13  2  0  0  0  0
 12 34  1  0  0  0  0
 13 14  1  0  0  0  0
 13 15  1  0  0  0  0
 14 35  1  0  0  0  0
 15 16  1  0  0  0  0
 15 17  2  0  0  0  0
 16 36  1  0  0  0  0
 17 18  1  0  0  0  0
 17 37  1  0  0  0  0
 18 19  1  0  0  0  0
 19 20  1  0  0  0  0
 20 21  1  0  0  0  0
 20 38  1  0  0  0  0
 20 39  1  0  0  0  0
 21 22  1  0  0  0  0
 21 29  2  0  0  0  0
 22 23  2  0  0  0  0
 22 40  1  0  0  0  0
 23 24  1  0  0  0  0
 23 41  1  0  0  0  0
 24 25  1  0  0  0  0
 24 28  2  0  0  0  0
 25 26  2  0  0  0  0
 25 27  1  0  0  0  0
 28 29  1  0  0  0  0
 28 42  1  0  0  0  0
 29 43  1  0  0  0  0
M  CHG  2  25   1  27  -1
M  END
$$$$
