
 OpenBabel01112422313D

 47 53  0  0  1  0  0  0  0  0999 V2000
    1.7107   -0.2032   -0.9457 O   0  0  0  0  0  0  0  0  0  0  0  0
    2.5960   -0.2570   -0.1016 C   0  0  0  0  0  0  0  0  0  0  0  0
    3.3725    0.8256    0.2433 N   0  0  0  0  0  0  0  0  0  0  0  0
    4.2885    0.6503    1.2527 C   0  0  0  0  0  0  0  0  0  0  0  0
    4.9083    1.5667    1.7634 O   0  0  0  0  0  0  0  0  0  0  0  0
    4.1955   -0.7574    1.4950 C   0  0  0  0  0  0  0  0  0  0  0  0
    3.0960   -1.3069    0.7359 C   0  0  0  0  0  0  0  0  0  0  0  0
    2.6505   -2.6378    1.0335 C   0  0  0  0  0  0  0  0  0  0  0  0
    1.5745   -3.4196    0.5773 C   0  0  0  0  0  0  0  0  0  0  0  0
    0.6308   -3.4902   -0.4683 C   0  0  0  0  0  0  0  0  0  0  0  0
   -0.3373   -4.5238   -0.4622 C   0  0  0  0  0  0  0  0  0  0  0  0
   -0.4402   -5.4307    0.5936 C   0  0  0  0  0  0  0  0  0  0  0  0
    0.4860   -5.4040    1.6214 C   0  0  0  0  0  0  0  0  0  0  0  0
    1.5028   -4.4514    1.5422 C   0  0  0  0  0  0  0  0  0  0  0  0
    2.5982   -4.3540    2.3632 N   0  0  0  0  0  0  0  0  0  0  0  0
    3.3703   -3.3196    1.9596 C   0  0  0  0  0  0  0  0  0  0  0  0
    4.5898   -2.9181    2.4289 C   0  0  0  0  0  0  0  0  0  0  0  0
    4.9931   -1.6321    2.2758 C   0  0  0  0  0  0  0  0  0  0  0  0
    6.1588   -1.3410    2.9755 C   0  0  0  0  0  0  0  0  0  0  0  0
    6.9989   -0.2583    3.2817 C   0  0  0  0  0  0  0  0  0  0  0  0
    8.1447   -0.4765    4.0670 C   0  0  0  0  0  0  0  0  0  0  0  0
    8.4702   -1.7483    4.5427 C   0  0  0  0  0  0  0  0  0  0  0  0
    7.6613   -2.8457    4.2469 C   0  0  0  0  0  0  0  0  0  0  0  0
    6.5176   -2.5992    3.4829 C   0  0  0  0  0  0  0  0  0  0  0  0
    5.5923   -3.5622    3.0834 N   0  0  0  0  0  0  0  0  0  0  0  0
    5.8128   -4.9779    3.3838 C   0  0  3  0  0  0  0  0  0  0  0  0
    5.4162   -5.9832    2.2751 C   0  0  0  0  0  0  0  0  0  0  0  0
    6.1704   -5.8287    1.0791 O   0  0  0  0  0  0  0  0  0  0  0  0
    7.3086   -5.2445    3.7344 C   0  0  0  0  0  0  0  0  0  0  0  0
    7.9120   -4.2412    4.7277 C   0  0  0  0  0  0  0  0  0  0  0  0
    3.2135    1.7487   -0.1353 H   0  0  0  0  0  0  0  0  0  0  0  0
    0.6736   -2.8117   -1.3160 H   0  0  0  0  0  0  0  0  0  0  0  0
   -1.0292   -4.6266   -1.2956 H   0  0  0  0  0  0  0  0  0  0  0  0
   -1.2244   -6.1826    0.6107 H   0  0  0  0  0  0  0  0  0  0  0  0
    0.4447   -6.1159    2.4399 H   0  0  0  0  0  0  0  0  0  0  0  0
    2.7924   -4.9754    3.1330 H   0  0  0  0  0  0  0  0  0  0  0  0
    6.7794    0.7472    2.9404 H   0  0  0  0  0  0  0  0  0  0  0  0
    8.7885    0.3670    4.3075 H   0  0  0  0  0  0  0  0  0  0  0  0
    9.3676   -1.8796    5.1427 H   0  0  0  0  0  0  0  0  0  0  0  0
    5.1978   -5.1756    4.2718 H   0  0  0  0  0  0  0  0  0  0  0  0
    4.3630   -5.9622    2.0076 H   0  0  0  0  0  0  0  0  0  0  0  0
    5.5993   -7.0015    2.6387 H   0  0  0  0  0  0  0  0  0  0  0  0
    5.8789   -5.0014    0.6532 H   0  0  0  0  0  0  0  0  0  0  0  0
    7.9057   -5.2095    2.8124 H   0  0  0  0  0  0  0  0  0  0  0  0
    7.4122   -6.2599    4.1358 H   0  0  0  0  0  0  0  0  0  0  0  0
    8.9877   -4.4290    4.8135 H   0  0  0  0  0  0  0  0  0  0  0  0
    7.4578   -4.3698    5.7163 H   0  0  0  0  0  0  0  0  0  0  0  0
  1  2  2  0  0  0  0
  2  3  1  0  0  0  0
  2  7  1  0  0  0  0
  3  4  1  0  0  0  0
  3 31  1  0  0  0  0
  4  5  2  0  0  0  0
  4  6  1  0  0  0  0
  6  7  1  0  0  0  0
  6 18  2  0  0  0  0
  7  8  2  0  0  0  0
  8  9  1  0  0  0  0
  8 16  1  0  0  0  0
  9 10  1  0  0  0  0
  9 14  2  0  0  0  0
 10 11  2  0  0  0  0
 10 32  1  0  0  0  0
 11 12  1  0  0  0  0
 11 33  1  0  0  0  0
 12 13  2  0  0  0  0
 12 34  1  0  0  0  0
 13 14  1  0  0  0  0
 13 35  1  0  0  0  0
 14 15  1  0  0  0  0
 15 16  1  0  0  0  0
 15 36  1  0  0  0  0
 16 17  2  0  0  0  0
 17 18  1  0  0  0  0
 17 25  1  0  0  0  0
 18 19  1  0  0  0  0
 19 20  1  0  0  0  0
 19 24  2  0  0  0  0
 20 21  2  0  0  0  0
 20 37  1  0  0  0  0
 21 22  1  0  0  0  0
 21 38  1  0  0  0  0
 22 23  2  0  0  0  0
 22 39  1  0  0  0  0
 23 24  1  0  0  0  0
 23 30  1  0  0  0  0
 24 25  1  0  0  0  0
 25 26  1  0  0  0  0
 26 27  1  0  0  0  0
 26 29  1  0  0  0  0
 26 40  1  0  0  0  0
 27 28  1  0  0  0  0
 27 41  1  0  0  0  0
 27 42  1  0  0  0  0
 28 43  1  0  0  0  0
 29 30  1  0  0  0  0
 29 44  1  0  0  0  0
 29 45  1  0  0  0  0
 30 46  1  0  0  0  0
 30 47  1  0  0  0  0
M  END
$$$$
