
 OpenBabel01112422553D

 49 52  0  0  1  0  0  0  0  0999 V2000
    0.2018   -1.1461    3.5829 C   0  0  0  0  0  0  0  0  0  0  0  0
    0.0830   -1.2306    2.1070 C   0  0  0  0  0  0  0  0  0  0  0  0
   -0.7527   -2.1100    1.5400 N   0  0  0  0  0  0  0  0  0  0  0  0
   -0.6007   -1.8922    0.2220 N   0  0  0  0  0  0  0  0  0  0  0  0
    0.2927   -0.9028   -0.0849 C   0  0  0  0  0  0  0  0  0  0  0  0
    0.7168   -0.3733   -1.3032 C   0  0  0  0  0  0  0  0  0  0  0  0
    1.6605    0.6654   -1.2541 C   0  0  0  0  0  0  0  0  0  0  0  0
    2.1892    1.1592   -0.0450 C   0  0  0  0  0  0  0  0  0  0  0  0
    3.1941    2.2490   -0.0248 C   0  0  0  0  0  0  0  0  0  0  0  0
    4.1510    2.4040   -1.0318 C   0  0  0  0  0  0  0  0  0  0  0  0
    5.0986    3.3719   -1.0656 N   0  0  0  0  0  0  0  0  0  0  0  0
    5.1117    4.2359   -0.0266 C   0  0  0  0  0  0  0  0  0  0  0  0
    4.2254    4.1897    1.0404 C   0  0  0  0  0  0  0  0  0  0  0  0
    4.3970    5.1368    2.0086 O   0  0  0  0  0  0  0  0  0  0  0  0
    3.5233    5.0746    3.1424 C   0  0  0  0  0  0  0  0  0  0  0  0
    3.8946    6.2086    4.1267 C   0  0  1  0  0  0  0  0  0  0  0  0
    3.7726    7.5221    3.4684 N   0  0  0  0  0  0  0  0  0  0  0  0
    3.0148    6.0995    5.3913 C   0  0  0  0  0  0  0  0  0  0  0  0
    3.2860    7.1457    6.4441 C   0  0  0  0  0  0  0  0  0  0  0  0
    4.2642    6.9461    7.4316 C   0  0  0  0  0  0  0  0  0  0  0  0
    4.4994    7.9227    8.4063 C   0  0  0  0  0  0  0  0  0  0  0  0
    3.7692    9.1119    8.3977 C   0  0  0  0  0  0  0  0  0  0  0  0
    2.8059    9.3165    7.4170 C   0  0  0  0  0  0  0  0  0  0  0  0
    2.1015   10.4566    7.4168 F   0  0  0  0  0  0  0  0  0  0  0  0
    2.5628    8.3442    6.4516 C   0  0  0  0  0  0  0  0  0  0  0  0
    1.6101    8.5534    5.5293 F   0  0  0  0  0  0  0  0  0  0  0  0
    3.2531    3.1894    1.0219 C   0  0  0  0  0  0  0  0  0  0  0  0
    1.7305    0.5771    1.1577 C   0  0  0  0  0  0  0  0  0  0  0  0
    0.7686   -0.4518    1.1371 C   0  0  0  0  0  0  0  0  0  0  0  0
   -0.4583   -1.8624    4.0834 H   0  0  0  0  0  0  0  0  0  0  0  0
   -0.0658   -0.1424    3.9286 H   0  0  0  0  0  0  0  0  0  0  0  0
    1.2294   -1.3561    3.8953 H   0  0  0  0  0  0  0  0  0  0  0  0
   -1.1438   -2.4559   -0.4217 H   0  0  0  0  0  0  0  0  0  0  0  0
    0.3335   -0.7360   -2.2515 H   0  0  0  0  0  0  0  0  0  0  0  0
    1.9713    1.0968   -2.2051 H   0  0  0  0  0  0  0  0  0  0  0  0
    4.2015    1.7204   -1.8757 H   0  0  0  0  0  0  0  0  0  0  0  0
    5.8858    4.9971   -0.0720 H   0  0  0  0  0  0  0  0  0  0  0  0
    3.6421    4.1075    3.6471 H   0  0  0  0  0  0  0  0  0  0  0  0
    2.4823    5.1979    2.8167 H   0  0  0  0  0  0  0  0  0  0  0  0
    4.9504    6.0966    4.4033 H   0  0  0  0  0  0  0  0  0  0  0  0
    2.7901    7.7508    3.3151 H   0  0  0  0  0  0  0  0  0  0  0  0
    4.1963    7.4595    2.5399 H   0  0  0  0  0  0  0  0  0  0  0  0
    3.1596    5.1096    5.8456 H   0  0  0  0  0  0  0  0  0  0  0  0
    1.9522    6.1360    5.1148 H   0  0  0  0  0  0  0  0  0  0  0  0
    4.8453    6.0265    7.4522 H   0  0  0  0  0  0  0  0  0  0  0  0
    5.2529    7.7549    9.1723 H   0  0  0  0  0  0  0  0  0  0  0  0
    3.9439    9.8772    9.1469 H   0  0  0  0  0  0  0  0  0  0  0  0
    2.5180    3.1305    1.8168 H   0  0  0  0  0  0  0  0  0  0  0  0
    2.1163    0.9010    2.1194 H   0  0  0  0  0  0  0  0  0  0  0  0
  1  2  1  0  0  0  0
  1 30  1  0  0  0  0
  1 31  1  0  0  0  0
  1 32  1  0  0  0  0
  2  3  2  0  0  0  0
  2 29  1  0  0  0  0
  3  4  1  0  0  0  0
  4  5  1  0  0  0  0
  4 33  1  0  0  0  0
  5  6  1  0  0  0  0
  5 29  2  0  0  0  0
  6  7  2  0  0  0  0
  6 34  1  0  0  0  0
  7  8  1  0  0  0  0
  7 35  1  0  0  0  0
  8  9  1  0  0  0  0
  8 28  2  0  0  0  0
  9 10  1  0  0  0  0
  9 27  2  0  0  0  0
 10 11  2  0  0  0  0
 10 36  1  0  0  0  0
 11 12  1  0  0  0  0
 12 13  2  0  0  0  0
 12 37  1  0  0  0  0
 13 14  1  0  0  0  0
 13 27  1  0  0  0  0
 14 15  1  0  0  0  0
 15 16  1  0  0  0  0
 15 38  1  0  0  0  0
 15 39  1  0  0  0  0
 16 17  1  0  0  0  0
 16 18  1  0  0  0  0
 16 40  1  1  0  0  0
 17 41  1  0  0  0  0
 17 42  1  0  0  0  0
 18 19  1  0  0  0  0
 18 43  1  0  0  0  0
 18 44  1  0  0  0  0
 19 20  1  0  0  0  0
 19 25  2  0  0  0  0
 20 21  2  0  0  0  0
 20 45  1  0  0  0  0
 21 22  1  0  0  0  0
 21 46  1  0  0  0  0
 22 23  2  0  0  0  0
 22 47  1  0  0  0  0
 23 24  1  0  0  0  0
 23 25  1  0  0  0  0
 25 26  1  0  0  0  0
 27 48  1  0  0  0  0
 28 29  1  0  0  0  0
 28 49  1  0  0  0  0
M  END
$$$$
