
 OpenBabel01112423023D

 66 69  0  0  1  0  0  0  0  0999 V2000
   -0.0674   -2.3551   -3.7762 O   0  0  0  0  0  0  0  0  0  0  0  0
   -0.2322   -2.1931   -2.5731 C   0  0  0  0  0  0  0  0  0  0  0  0
    0.7528   -1.7475   -1.7177 N   0  0  0  0  0  0  0  0  0  0  0  0
    2.0913   -1.3449   -2.1971 C   0  0  2  0  0  0  0  0  0  0  0  0
    1.9484   -0.1515   -3.1897 C   0  0  0  0  0  0  0  0  0  0  0  0
    3.2097    0.5078   -3.5342 N   0  0  0  0  0  0  0  0  0  0  0  0
    3.8358   -0.0354   -4.7338 C   0  0  0  0  0  0  0  0  0  0  0  0
    3.7540   -1.5529   -4.9077 C   0  0  0  0  0  0  0  0  0  0  0  0
    4.0979   -2.3311   -3.6370 C   0  0  0  0  0  0  0  0  0  0  0  0
    2.8955   -2.5812   -2.7062 C   0  0  1  0  0  0  0  0  0  0  0  0
    3.2877   -3.4810   -1.6014 O   0  0  0  0  0  0  0  0  0  0  0  0
    4.1769   -3.0627   -0.6683 C   0  0  0  0  0  0  0  0  0  0  0  0
    4.6689   -1.9465   -0.6014 O   0  0  0  0  0  0  0  0  0  0  0  0
    4.5251   -4.1386    0.3125 C   0  0  0  0  0  0  0  0  0  0  0  0
    5.1468   -3.7693    1.5099 C   0  0  0  0  0  0  0  0  0  0  0  0
    5.6614   -4.7458    2.3773 C   0  0  0  0  0  0  0  0  0  0  0  0
    6.3581   -4.3133    3.4745 O   0  0  0  0  0  0  0  0  0  0  0  0
    5.5339   -6.1267    2.1060 C   0  0  0  0  0  0  0  0  0  0  0  0
    6.2486   -7.1079    3.0119 C   0  0  0  0  0  0  0  0  0  0  0  0
    6.4401   -6.8197    4.1914 O   0  0  0  0  0  0  0  0  0  0  0  0
    6.7799   -8.4344    2.5744 C   0  0  0  0  0  0  0  0  0  0  0  0
    7.3464   -8.5704    1.2836 C   0  0  0  0  0  0  0  0  0  0  0  0
    7.5760   -7.5415    0.4087 O   0  0  0  0  0  0  0  0  0  0  0  0
    7.7259   -9.8139    0.7735 C   0  0  0  0  0  0  0  0  0  0  0  0
    7.6377  -10.9445    1.5620 C   0  0  0  0  0  0  0  0  0  0  0  0
    7.1828  -10.8194    2.8702 C   0  0  0  0  0  0  0  0  0  0  0  0
    6.7467   -9.5824    3.4132 C   0  0  0  0  0  0  0  0  0  0  0  0
    6.2486   -9.7373    4.8328 C   0  0  0  0  0  0  0  0  0  0  0  0
    6.2285  -10.8418    5.3656 O   0  0  0  0  0  0  0  0  0  0  0  0
    5.7821   -8.6794    5.5063 O   0  0  0  0  0  0  0  0  0  0  0  0
    4.8014   -6.4784    0.9573 C   0  0  0  0  0  0  0  0  0  0  0  0
    4.4877   -7.7548    0.5773 O   0  0  0  0  0  0  0  0  0  0  0  0
    4.3368   -5.5006    0.0571 C   0  0  0  0  0  0  0  0  0  0  0  0
   -1.5476   -2.5149   -1.9643 C   0  0  0  0  0  0  0  0  0  0  0  0
   -2.3245   -3.5147   -2.5655 C   0  0  0  0  0  0  0  0  0  0  0  0
   -3.5656   -3.8584   -2.0283 C   0  0  0  0  0  0  0  0  0  0  0  0
   -4.0278   -3.1862   -0.9016 C   0  0  0  0  0  0  0  0  0  0  0  0
   -5.2308   -3.4931   -0.3393 O   0  0  0  0  0  0  0  0  0  0  0  0
   -3.2793   -2.1711   -0.3133 C   0  0  0  0  0  0  0  0  0  0  0  0
   -2.0356   -1.8276   -0.8464 C   0  0  0  0  0  0  0  0  0  0  0  0
    0.6063   -1.7862   -0.7191 H   0  0  0  0  0  0  0  0  0  0  0  0
    2.5727   -0.9483   -1.3001 H   0  0  0  0  0  0  0  0  0  0  0  0
    1.3261    0.6065   -2.7040 H   0  0  0  0  0  0  0  0  0  0  0  0
    1.3968   -0.4268   -4.0942 H   0  0  0  0  0  0  0  0  0  0  0  0
    3.8570    0.4701   -2.7470 H   0  0  0  0  0  0  0  0  0  0  0  0
    4.8888    0.2699   -4.7288 H   0  0  0  0  0  0  0  0  0  0  0  0
    3.3937    0.4468   -5.6155 H   0  0  0  0  0  0  0  0  0  0  0  0
    4.4622   -1.8306   -5.6984 H   0  0  0  0  0  0  0  0  0  0  0  0
    2.7640   -1.8450   -5.2806 H   0  0  0  0  0  0  0  0  0  0  0  0
    4.9260   -1.8474   -3.1094 H   0  0  0  0  0  0  0  0  0  0  0  0
    4.4833   -3.3148   -3.9373 H   0  0  0  0  0  0  0  0  0  0  0  0
    2.2107   -3.2078   -3.2888 H   0  0  0  0  0  0  0  0  0  0  0  0
    5.2677   -2.7125    1.7420 H   0  0  0  0  0  0  0  0  0  0  0  0
    6.2732   -3.3519    3.5895 H   0  0  0  0  0  0  0  0  0  0  0  0
    7.6282   -6.6864    0.8646 H   0  0  0  0  0  0  0  0  0  0  0  0
    8.0998   -9.8953   -0.2465 H   0  0  0  0  0  0  0  0  0  0  0  0
    7.9325  -11.9175    1.1745 H   0  0  0  0  0  0  0  0  0  0  0  0
    7.1591  -11.7291    3.4774 H   0  0  0  0  0  0  0  0  0  0  0  0
    6.0637   -7.7968    5.1722 H   0  0  0  0  0  0  0  0  0  0  0  0
    4.6755   -8.4081    1.2679 H   0  0  0  0  0  0  0  0  0  0  0  0
    3.8551   -5.8235   -0.8646 H   0  0  0  0  0  0  0  0  0  0  0  0
   -1.9597   -4.0271   -3.4539 H   0  0  0  0  0  0  0  0  0  0  0  0
   -4.1491   -4.6411   -2.5017 H   0  0  0  0  0  0  0  0  0  0  0  0
   -5.6414   -4.2079   -0.8537 H   0  0  0  0  0  0  0  0  0  0  0  0
   -3.6702   -1.6429    0.5523 H   0  0  0  0  0  0  0  0  0  0  0  0
   -1.4796   -1.0080   -0.4008 H   0  0  0  0  0  0  0  0  0  0  0  0
  1  2  2  0  0  0  0
  2  3  1  0  0  0  0
  2 34  1  0  0  0  0
  3 41  1  0  0  0  0
  4  5  1  0  0  0  0
  4 10  1  0  0  0  0
  4  3  1  0  0  0  0
  4 42  1  1  0  0  0
  5  6  1  0  0  0  0
  5 43  1  0  0  0  0
  5 44  1  0  0  0  0
  6  7  1  0  0  0  0
  6 45  1  0  0  0  0
  7  8  1  0  0  0  0
  7 46  1  0  0  0  0
  7 47  1  0  0  0  0
  8  9  1  0  0  0  0
  8 48  1  0  0  0  0
  8 49  1  0  0  0  0
  9 10  1  0  0  0  0
  9 50  1  0  0  0  0
  9 51  1  0  0  0  0
 10 11  1  0  0  0  0
 10 52  1  6  0  0  0
 11 12  1  0  0  0  0
 12 13  2  0  0  0  0
 12 14  1  0  0  0  0
 14 15  1  0  0  0  0
 14 33  2  0  0  0  0
 15 16  2  0  0  0  0
 15 53  1  0  0  0  0
 16 17  1  0  0  0  0
 16 18  1  0  0  0  0
 17 54  1  0  0  0  0
 18 19  1  0  0  0  0
 18 31  2  0  0  0  0
 19 20  2  0  0  0  0
 19 21  1  0  0  0  0
 21 22  1  0  0  0  0
 21 27  2  0  0  0  0
 22 23  1  0  0  0  0
 22 24  2  0  0  0  0
 23 55  1  0  0  0  0
 24 25  1  0  0  0  0
 24 56  1  0  0  0  0
 25 26  2  0  0  0  0
 25 57  1  0  0  0  0
 26 27  1  0  0  0  0
 26 58  1  0  0  0  0
 27 28  1  0  0  0  0
 28 29  2  0  0  0  0
 28 30  1  0  0  0  0
 30 59  1  0  0  0  0
 31 32  1  0  0  0  0
 31 33  1  0  0  0  0
 32 60  1  0  0  0  0
 33 61  1  0  0  0  0
 34 35  1  0  0  0  0
 34 40  2  0  0  0  0
 35 36  2  0  0  0  0
 35 62  1  0  0  0  0
 36 37  1  0  0  0  0
 36 63  1  0  0  0  0
 37 38  1  0  0  0  0
 37 39  2  0  0  0  0
 38 64  1  0  0  0  0
 39 40  1  0  0  0  0
 39 65  1  0  0  0  0
 40 66  1  0  0  0  0
M  END
$$$$
