
 OpenBabel01112422133D

 48 50  0  0  0  0  0  0  0  0999 V2000
    9.2530    2.7239   -2.0737 N   0  0  0  0  0  0  0  0  0  0  0  0
    8.1378    1.8043   -1.8874 C   0  0  0  0  0  0  0  0  0  0  0  0
    8.6519    0.3995   -1.5867 C   0  0  0  0  0  0  0  0  0  0  0  0
    7.4845   -0.5698   -1.3918 C   0  0  0  0  0  0  0  0  0  0  0  0
    8.0193   -1.8997   -1.1040 N   0  0  0  0  0  0  0  0  0  0  0  0
    6.9553   -2.8711   -0.8619 C   0  0  0  0  0  0  0  0  0  0  0  0
    7.5269   -4.2521   -0.5274 C   0  0  0  0  0  0  0  0  0  0  0  0
    8.3495   -4.2502    0.7617 C   0  0  0  0  0  0  0  0  0  0  0  0
    8.8769   -5.5988    1.0580 N   0  0  0  0  0  0  0  0  0  0  0  0
   10.2649   -5.7260    1.1472 C   0  0  0  0  0  0  0  0  0  0  0  0
   11.1223   -5.5812    2.1679 C   0  0  0  0  0  0  0  0  0  0  0  0
   10.7879   -5.3531    3.5197 C   0  0  0  0  0  0  0  0  0  0  0  0
   11.5363   -5.1421    4.6603 C   0  0  0  0  0  0  0  0  0  0  0  0
   10.6586   -5.1750    5.7778 C   0  0  0  0  0  0  0  0  0  0  0  0
   10.8518   -5.1090    7.1694 C   0  0  0  0  0  0  0  0  0  0  0  0
    9.7439   -5.2173    8.0175 C   0  0  0  0  0  0  0  0  0  0  0  0
    8.4611   -5.3749    7.4954 C   0  0  0  0  0  0  0  0  0  0  0  0
    8.2453   -5.4367    6.1149 C   0  0  0  0  0  0  0  0  0  0  0  0
    9.3683   -5.3420    5.2840 C   0  0  0  0  0  0  0  0  0  0  0  0
    9.4694   -5.4099    3.9140 N   0  0  0  0  0  0  0  0  0  0  0  0
   12.4901   -5.8041    1.6432 C   0  0  0  0  0  0  0  0  0  0  0  0
   13.5363   -5.7391    2.2656 O   0  0  0  0  0  0  0  0  0  0  0  0
   12.3728   -6.1044    0.3311 N   0  0  0  0  0  0  0  0  0  0  0  0
   11.0787   -6.1157   -0.0409 C   0  0  0  0  0  0  0  0  0  0  0  0
   10.6171   -6.4024   -1.1292 O   0  0  0  0  0  0  0  0  0  0  0  0
    8.8955    3.6407   -2.3391 H   0  0  0  0  0  0  0  0  0  0  0  0
    9.8323    2.4079   -2.8513 H   0  0  0  0  0  0  0  0  0  0  0  0
    7.5179    1.7940   -2.7901 H   0  0  0  0  0  0  0  0  0  0  0  0
    7.5170    2.1605   -1.0584 H   0  0  0  0  0  0  0  0  0  0  0  0
    9.2754    0.4203   -0.6830 H   0  0  0  0  0  0  0  0  0  0  0  0
    9.2899    0.0497   -2.4091 H   0  0  0  0  0  0  0  0  0  0  0  0
    6.8692   -0.5981   -2.2973 H   0  0  0  0  0  0  0  0  0  0  0  0
    6.8591   -0.2263   -0.5589 H   0  0  0  0  0  0  0  0  0  0  0  0
    8.6343   -1.8222   -0.2960 H   0  0  0  0  0  0  0  0  0  0  0  0
    6.3336   -2.9647   -1.7616 H   0  0  0  0  0  0  0  0  0  0  0  0
    6.3073   -2.5395   -0.0429 H   0  0  0  0  0  0  0  0  0  0  0  0
    8.1388   -4.6138   -1.3641 H   0  0  0  0  0  0  0  0  0  0  0  0
    6.6958   -4.9619   -0.4254 H   0  0  0  0  0  0  0  0  0  0  0  0
    7.7284   -3.9213    1.6020 H   0  0  0  0  0  0  0  0  0  0  0  0
    9.1822   -3.5423    0.6803 H   0  0  0  0  0  0  0  0  0  0  0  0
    8.5755   -6.2264    0.3032 H   0  0  0  0  0  0  0  0  0  0  0  0
   12.6153   -5.0511    4.6989 H   0  0  0  0  0  0  0  0  0  0  0  0
   11.8505   -5.0008    7.5807 H   0  0  0  0  0  0  0  0  0  0  0  0
    9.8905   -5.1851    9.0942 H   0  0  0  0  0  0  0  0  0  0  0  0
    7.6146   -5.4602    8.1730 H   0  0  0  0  0  0  0  0  0  0  0  0
    7.2473   -5.5717    5.7120 H   0  0  0  0  0  0  0  0  0  0  0  0
    8.6938   -5.5627    3.2796 H   0  0  0  0  0  0  0  0  0  0  0  0
   13.1448   -6.3378   -0.2681 H   0  0  0  0  0  0  0  0  0  0  0  0
  1  2  1  0  0  0  0
  1 26  1  0  0  0  0
  1 27  1  0  0  0  0
  2  3  1  0  0  0  0
  2 28  1  0  0  0  0
  2 29  1  0  0  0  0
  3  4  1  0  0  0  0
  3 30  1  0  0  0  0
  3 31  1  0  0  0  0
  4  5  1  0  0  0  0
  4 32  1  0  0  0  0
  4 33  1  0  0  0  0
  5  6  1  0  0  0  0
  5 34  1  0  0  0  0
  6  7  1  0  0  0  0
  6 35  1  0  0  0  0
  6 36  1  0  0  0  0
  7  8  1  0  0  0  0
  7 37  1  0  0  0  0
  7 38  1  0  0  0  0
  8  9  1  0  0  0  0
  8 39  1  0  0  0  0
  8 40  1  0  0  0  0
  9 10  1  0  0  0  0
  9 41  1  0  0  0  0
 10 11  2  0  0  0  0
 10 24  1  0  0  0  0
 11 12  1  0  0  0  0
 11 21  1  0  0  0  0
 12 13  2  0  0  0  0
 12 20  1  0  0  0  0
 13 14  1  0  0  0  0
 13 42  1  0  0  0  0
 14 15  1  0  0  0  0
 14 19  2  0  0  0  0
 15 16  2  0  0  0  0
 15 43  1  0  0  0  0
 16 17  1  0  0  0  0
 16 44  1  0  0  0  0
 17 18  2  0  0  0  0
 17 45  1  0  0  0  0
 18 19  1  0  0  0  0
 18 46  1  0  0  0  0
 19 20  1  0  0  0  0
 20 47  1  0  0  0  0
 21 22  2  0  0  0  0
 21 23  1  0  0  0  0
 23 24  1  0  0  0  0
 23 48  1  0  0  0  0
 24 25  2  0  0  0  0
M  END
$$$$
