
 OpenBabel01112422283D

 72 77  0  0  1  0  0  0  0  0999 V2000
    3.0783    2.9898    1.7061 O   0  0  0  0  0  0  0  0  0  0  0  0
    3.5187    1.9747    1.1427 C   0  0  0  0  0  0  0  0  0  0  0  0
    3.0331    1.5635   -0.0807 N   0  0  0  0  0  0  0  0  0  0  0  0
    1.7742    2.0987   -0.6587 C   0  0  3  0  0  0  0  0  0  0  0  0
    1.7322    3.5175   -1.3586 C   0  0  3  0  0  0  0  0  0  0  0  0
    0.9668    3.3191   -2.7079 C   0  0  0  0  0  0  0  0  0  0  0  0
    1.7995    2.0870   -3.0925 C   0  0  3  0  0  0  0  0  0  0  0  0
    3.1612    2.9298   -3.1620 C   0  0  3  0  0  0  0  0  0  0  0  0
    4.2701    3.6203   -3.9863 C   0  0  0  0  0  0  0  0  0  0  0  0
    4.0632    5.1429   -3.6922 C   0  0  0  0  0  0  0  0  0  0  0  0
    3.3761    5.2530   -2.3304 C   0  0  0  0  0  0  0  0  0  0  0  0
    3.1227    3.8171   -1.8895 C   0  0  3  0  0  0  0  0  0  0  0  0
    1.3225    1.2285   -1.8376 C   0  0  3  0  0  0  0  0  0  0  0  0
   -0.1637    1.2798   -1.6052 O   0  0  0  0  0  0  0  0  0  0  0  0
   -1.0406    0.7830   -2.4964 C   0  0  0  0  0  0  0  0  0  0  0  0
   -0.8892   -0.2712   -3.0981 O   0  0  0  0  0  0  0  0  0  0  0  0
   -2.1021    1.8214   -2.8642 C   0  0  0  0  0  0  0  0  0  0  0  0
   -2.3466    3.0078   -2.1540 C   0  0  0  0  0  0  0  0  0  0  0  0
   -3.0378    4.0757   -2.7710 C   0  0  0  0  0  0  0  0  0  0  0  0
   -3.1853    5.2617   -2.1004 O   0  0  0  0  0  0  0  0  0  0  0  0
   -3.5467    3.9566   -4.0803 C   0  0  0  0  0  0  0  0  0  0  0  0
   -4.2061    5.1325   -4.7578 C   0  0  0  0  0  0  0  0  0  0  0  0
   -3.6552    6.2237   -4.7183 O   0  0  0  0  0  0  0  0  0  0  0  0
   -5.4127    4.9966   -5.6477 C   0  0  0  0  0  0  0  0  0  0  0  0
   -5.5037    5.9181   -6.7234 C   0  0  0  0  0  0  0  0  0  0  0  0
   -4.5832    6.9040   -6.9496 O   0  0  0  0  0  0  0  0  0  0  0  0
   -6.5449    5.8643   -7.6527 C   0  0  0  0  0  0  0  0  0  0  0  0
   -7.5376    4.9027   -7.5378 C   0  0  0  0  0  0  0  0  0  0  0  0
   -7.4855    3.9926   -6.4828 C   0  0  0  0  0  0  0  0  0  0  0  0
   -6.4304    4.0239   -5.5403 C   0  0  0  0  0  0  0  0  0  0  0  0
   -6.5055    3.0608   -4.4196 C   0  0  0  0  0  0  0  0  0  0  0  0
   -6.2433    3.3590   -3.2698 O   0  0  0  0  0  0  0  0  0  0  0  0
   -6.9008    1.8227   -4.7886 O   0  0  0  0  0  0  0  0  0  0  0  0
   -3.3392    2.7421   -4.7504 C   0  0  0  0  0  0  0  0  0  0  0  0
   -3.7307    2.5078   -6.0444 O   0  0  0  0  0  0  0  0  0  0  0  0
   -2.6542    1.6822   -4.1508 C   0  0  0  0  0  0  0  0  0  0  0  0
    4.5879    1.1548    1.8125 C   0  0  0  0  0  0  0  0  0  0  0  0
    4.9250    1.4785    3.1445 C   0  0  0  0  0  0  0  0  0  0  0  0
    5.9261    0.7890    3.8369 C   0  0  0  0  0  0  0  0  0  0  0  0
    6.6075   -0.2418    3.2031 C   0  0  0  0  0  0  0  0  0  0  0  0
    7.6129   -0.9217    3.8235 O   0  0  0  0  0  0  0  0  0  0  0  0
    6.2807   -0.6033    1.9012 C   0  0  0  0  0  0  0  0  0  0  0  0
    5.2768    0.0937    1.2026 C   0  0  0  0  0  0  0  0  0  0  0  0
    3.2840    0.6289   -0.3606 H   0  0  0  0  0  0  0  0  0  0  0  0
    1.0436    2.0955    0.1560 H   0  0  0  0  0  0  0  0  0  0  0  0
    1.2673    4.2933   -0.7474 H   0  0  0  0  0  0  0  0  0  0  0  0
    1.0191    4.1623   -3.4082 H   0  0  0  0  0  0  0  0  0  0  0  0
   -0.0788    3.1251   -2.6694 H   0  0  0  0  0  0  0  0  0  0  0  0
    1.5797    1.5631   -4.0284 H   0  0  0  0  0  0  0  0  0  0  0  0
    2.5989    3.4172   -3.9834 H   0  0  0  0  0  0  0  0  0  0  0  0
    4.1885    3.4450   -5.0702 H   0  0  0  0  0  0  0  0  0  0  0  0
    5.2735    3.3115   -3.6839 H   0  0  0  0  0  0  0  0  0  0  0  0
    3.3971    5.5899   -4.4444 H   0  0  0  0  0  0  0  0  0  0  0  0
    4.9981    5.7095   -3.7220 H   0  0  0  0  0  0  0  0  0  0  0  0
    2.4538    5.8454   -2.3896 H   0  0  0  0  0  0  0  0  0  0  0  0
    4.0198    5.7644   -1.6052 H   0  0  0  0  0  0  0  0  0  0  0  0
    3.9066    3.5505   -1.1763 H   0  0  0  0  0  0  0  0  0  0  0  0
    1.6697    0.1893   -1.7942 H   0  0  0  0  0  0  0  0  0  0  0  0
   -1.9031    3.1571   -1.1672 H   0  0  0  0  0  0  0  0  0  0  0  0
   -2.7048    5.2509   -1.2566 H   0  0  0  0  0  0  0  0  0  0  0  0
   -4.0350    7.0042   -6.1350 H   0  0  0  0  0  0  0  0  0  0  0  0
   -6.5854    6.5962   -8.4601 H   0  0  0  0  0  0  0  0  0  0  0  0
   -8.3591    4.8775   -8.2499 H   0  0  0  0  0  0  0  0  0  0  0  0
   -8.3027    3.2793   -6.3832 H   0  0  0  0  0  0  0  0  0  0  0  0
   -6.9457    1.6485   -5.7481 H   0  0  0  0  0  0  0  0  0  0  0  0
   -3.7007    3.3378   -6.5526 H   0  0  0  0  0  0  0  0  0  0  0  0
   -2.4693    0.7772   -4.7152 H   0  0  0  0  0  0  0  0  0  0  0  0
    4.3955    2.2842    3.6554 H   0  0  0  0  0  0  0  0  0  0  0  0
    6.1564    1.0680    4.8613 H   0  0  0  0  0  0  0  0  0  0  0  0
    7.7965   -0.4980    4.6794 H   0  0  0  0  0  0  0  0  0  0  0  0
    6.8200   -1.4185    1.4214 H   0  0  0  0  0  0  0  0  0  0  0  0
    5.0727   -0.2141    0.1852 H   0  0  0  0  0  0  0  0  0  0  0  0
  1  2  2  0  0  0  0
  2  3  1  0  0  0  0
  2 37  1  0  0  0  0
  3  4  1  0  0  0  0
  3 44  1  0  0  0  0
  4  5  1  0  0  0  0
  4 13  1  0  0  0  0
  4 45  1  0  0  0  0
  5  6  1  0  0  0  0
  5 12  1  0  0  0  0
  5 46  1  0  0  0  0
  6  7  1  0  0  0  0
  6 47  1  0  0  0  0
  6 48  1  0  0  0  0
  7  8  1  0  0  0  0
  7 13  1  0  0  0  0
  7 49  1  0  0  0  0
  8  9  1  0  0  0  0
  8 12  1  0  0  0  0
  8 50  1  0  0  0  0
  9 10  1  0  0  0  0
  9 51  1  0  0  0  0
  9 52  1  0  0  0  0
 10 11  1  0  0  0  0
 10 53  1  0  0  0  0
 10 54  1  0  0  0  0
 11 12  1  0  0  0  0
 11 55  1  0  0  0  0
 11 56  1  0  0  0  0
 12 57  1  0  0  0  0
 13 14  1  0  0  0  0
 13 58  1  0  0  0  0
 14 15  1  0  0  0  0
 15 16  2  0  0  0  0
 15 17  1  0  0  0  0
 17 18  1  0  0  0  0
 17 36  2  0  0  0  0
 18 19  2  0  0  0  0
 18 59  1  0  0  0  0
 19 20  1  0  0  0  0
 19 21  1  0  0  0  0
 20 60  1  0  0  0  0
 21 22  1  0  0  0  0
 21 34  2  0  0  0  0
 22 23  2  0  0  0  0
 22 24  1  0  0  0  0
 24 25  1  0  0  0  0
 24 30  2  0  0  0  0
 25 26  1  0  0  0  0
 25 27  2  0  0  0  0
 26 61  1  0  0  0  0
 27 28  1  0  0  0  0
 27 62  1  0  0  0  0
 28 29  2  0  0  0  0
 28 63  1  0  0  0  0
 29 30  1  0  0  0  0
 29 64  1  0  0  0  0
 30 31  1  0  0  0  0
 31 32  2  0  0  0  0
 31 33  1  0  0  0  0
 33 65  1  0  0  0  0
 34 35  1  0  0  0  0
 34 36  1  0  0  0  0
 35 66  1  0  0  0  0
 36 67  1  0  0  0  0
 37 38  1  0  0  0  0
 37 43  2  0  0  0  0
 38 39  2  0  0  0  0
 38 68  1  0  0  0  0
 39 40  1  0  0  0  0
 39 69  1  0  0  0  0
 40 41  1  0  0  0  0
 40 42  2  0  0  0  0
 41 70  1  0  0  0  0
 42 43  1  0  0  0  0
 42 71  1  0  0  0  0
 43 72  1  0  0  0  0
M  END
$$$$
