
 OpenBabel01112422433D

 56 58  0  0  0  0  0  0  0  0999 V2000
    3.9158    0.4689   -1.7071 C   0  0  0  0  0  0  0  0  0  0  0  0
    3.1701   -0.4217   -0.8784 O   0  0  0  0  0  0  0  0  0  0  0  0
    3.9051   -1.3206   -0.1702 C   0  0  0  0  0  0  0  0  0  0  0  0
    5.1224   -1.3845   -0.1434 O   0  0  0  0  0  0  0  0  0  0  0  0
    2.9790   -2.3061    0.4580 C   0  0  0  0  0  0  0  0  0  0  0  0
    1.7808   -2.5934   -0.2373 C   0  0  0  0  0  0  0  0  0  0  0  0
    0.9150   -3.5945    0.1910 C   0  0  0  0  0  0  0  0  0  0  0  0
    1.2152   -4.3120    1.3391 C   0  0  0  0  0  0  0  0  0  0  0  0
    2.3700   -4.0086    2.0639 C   0  0  0  0  0  0  0  0  0  0  0  0
    2.5844   -4.7035    3.2261 O   0  0  0  0  0  0  0  0  0  0  0  0
    3.2897   -3.0315    1.6246 C   0  0  0  0  0  0  0  0  0  0  0  0
    4.5191   -2.7631    2.4256 C   0  0  0  0  0  0  0  0  0  0  0  0
    4.8198   -1.5945    2.6781 O   0  0  0  0  0  0  0  0  0  0  0  0
    5.3448   -3.8495    3.0399 C   0  0  0  0  0  0  0  0  0  0  0  0
    6.0869   -3.5873    4.2122 C   0  0  0  0  0  0  0  0  0  0  0  0
    6.0909   -2.3635    4.8439 O   0  0  0  0  0  0  0  0  0  0  0  0
    6.8715   -4.5716    4.8238 C   0  0  0  0  0  0  0  0  0  0  0  0
    6.8981   -5.8716    4.2965 C   0  0  0  0  0  0  0  0  0  0  0  0
    7.8404   -6.8703    4.8753 C   0  0  0  0  0  0  0  0  0  0  0  0
    8.6432   -6.6409    5.7579 O   0  0  0  0  0  0  0  0  0  0  0  0
    7.7671   -8.0128    4.1465 O   0  0  0  0  0  0  0  0  0  0  0  0
    9.0350   -8.5066    3.7016 C   0  0  0  0  0  0  0  0  0  0  0  0
    9.3898   -9.8363    4.3511 C   0  0  0  0  0  0  0  0  0  0  0  0
   10.7080  -10.3645    3.7737 C   0  0  0  0  0  0  0  0  0  0  0  0
   11.1666  -11.6654    4.3842 C   0  0  0  0  0  0  0  0  0  0  0  0
   11.3350  -12.8136    3.5930 C   0  0  0  0  0  0  0  0  0  0  0  0
   11.8095  -14.0015    4.1566 C   0  0  0  0  0  0  0  0  0  0  0  0
   12.1189  -14.0415    5.5123 C   0  0  0  0  0  0  0  0  0  0  0  0
   12.5939  -15.1749    6.1030 O   0  0  0  0  0  0  0  0  0  0  0  0
   11.9594  -12.9165    6.3100 C   0  0  0  0  0  0  0  0  0  0  0  0
   11.4902  -11.7292    5.7473 C   0  0  0  0  0  0  0  0  0  0  0  0
    6.1380   -6.1537    3.1588 C   0  0  0  0  0  0  0  0  0  0  0  0
    5.4016   -5.1488    2.5206 C   0  0  0  0  0  0  0  0  0  0  0  0
    4.7491   -5.4785    1.3590 O   0  0  0  0  0  0  0  0  0  0  0  0
    3.2457    0.8490   -2.4862 H   0  0  0  0  0  0  0  0  0  0  0  0
    4.7523   -0.0337   -2.2034 H   0  0  0  0  0  0  0  0  0  0  0  0
    4.2682    1.3142   -1.1087 H   0  0  0  0  0  0  0  0  0  0  0  0
    1.5205   -2.0497   -1.1443 H   0  0  0  0  0  0  0  0  0  0  0  0
    0.0117   -3.8110   -0.3732 H   0  0  0  0  0  0  0  0  0  0  0  0
    0.5352   -5.0922    1.6673 H   0  0  0  0  0  0  0  0  0  0  0  0
    2.1112   -5.5509    3.1727 H   0  0  0  0  0  0  0  0  0  0  0  0
    5.5832   -1.7329    4.2798 H   0  0  0  0  0  0  0  0  0  0  0  0
    7.4737   -4.3189    5.6923 H   0  0  0  0  0  0  0  0  0  0  0  0
    9.8296   -7.7655    3.8553 H   0  0  0  0  0  0  0  0  0  0  0  0
    8.9351   -8.6430    2.6179 H   0  0  0  0  0  0  0  0  0  0  0  0
    8.5817  -10.5599    4.1859 H   0  0  0  0  0  0  0  0  0  0  0  0
    9.4535   -9.7006    5.4372 H   0  0  0  0  0  0  0  0  0  0  0  0
   11.5051   -9.6234    3.9184 H   0  0  0  0  0  0  0  0  0  0  0  0
   10.6013  -10.4847    2.6876 H   0  0  0  0  0  0  0  0  0  0  0  0
   11.1058  -12.7880    2.5297 H   0  0  0  0  0  0  0  0  0  0  0  0
   11.9387  -14.8754    3.5264 H   0  0  0  0  0  0  0  0  0  0  0  0
   12.6857  -15.8633    5.4247 H   0  0  0  0  0  0  0  0  0  0  0  0
   12.2075  -12.9586    7.3664 H   0  0  0  0  0  0  0  0  0  0  0  0
   11.3911  -10.8498    6.3797 H   0  0  0  0  0  0  0  0  0  0  0  0
    6.1482   -7.1569    2.7336 H   0  0  0  0  0  0  0  0  0  0  0  0
    4.6383   -6.4436    1.3149 H   0  0  0  0  0  0  0  0  0  0  0  0
  1  2  1  0  0  0  0
  1 35  1  0  0  0  0
  1 36  1  0  0  0  0
  1 37  1  0  0  0  0
  2  3  1  0  0  0  0
  3  4  2  0  0  0  0
  3  5  1  0  0  0  0
  5  6  1  0  0  0  0
  5 11  2  0  0  0  0
  6  7  2  0  0  0  0
  6 38  1  0  0  0  0
  7  8  1  0  0  0  0
  7 39  1  0  0  0  0
  8  9  2  0  0  0  0
  8 40  1  0  0  0  0
  9 10  1  0  0  0  0
  9 11  1  0  0  0  0
 10 41  1  0  0  0  0
 11 12  1  0  0  0  0
 12 13  2  0  0  0  0
 12 14  1  0  0  0  0
 14 15  1  0  0  0  0
 14 33  2  0  0  0  0
 15 16  1  0  0  0  0
 15 17  2  0  0  0  0
 16 42  1  0  0  0  0
 17 18  1  0  0  0  0
 17 43  1  0  0  0  0
 18 19  1  0  0  0  0
 18 32  2  0  0  0  0
 19 20  2  0  0  0  0
 19 21  1  0  0  0  0
 21 22  1  0  0  0  0
 22 23  1  0  0  0  0
 22 44  1  0  0  0  0
 22 45  1  0  0  0  0
 23 24  1  0  0  0  0
 23 46  1  0  0  0  0
 23 47  1  0  0  0  0
 24 25  1  0  0  0  0
 24 48  1  0  0  0  0
 24 49  1  0  0  0  0
 25 26  1  0  0  0  0
 25 31  2  0  0  0  0
 26 27  2  0  0  0  0
 26 50  1  0  0  0  0
 27 28  1  0  0  0  0
 27 51  1  0  0  0  0
 28 29  1  0  0  0  0
 28 30  2  0  0  0  0
 29 52  1  0  0  0  0
 30 31  1  0  0  0  0
 30 53  1  0  0  0  0
 31 54  1  0  0  0  0
 32 33  1  0  0  0  0
 32 55  1  0  0  0  0
 33 34  1  0  0  0  0
 34 56  1  0  0  0  0
M  END
$$$$
