
 OpenBabel01112422383D

 28 30  0  0  0  0  0  0  0  0999 V2000
    1.1121   -0.0328    0.0431 O   0  0  0  0  0  0  0  0  0  0  0  0
    2.4773    0.0072    0.0421 C   0  0  0  0  0  0  0  0  0  0  0  0
    3.2231   -1.1677    0.0421 C   0  0  0  0  0  0  0  0  0  0  0  0
    4.6123   -1.1423    0.0417 C   0  0  0  0  0  0  0  0  0  0  0  0
    5.2454   -2.3210    0.0419 N   0  0  0  0  0  0  0  0  0  0  0  0
    6.5852   -2.2928    0.0415 C   0  0  0  0  0  0  0  0  0  0  0  0
    7.1295   -3.5442    0.0420 O   0  0  0  0  0  0  0  0  0  0  0  0
    7.3997   -1.1602    0.0411 C   0  0  0  0  0  0  0  0  0  0  0  0
    8.8144   -1.1974    0.0409 C   0  0  0  0  0  0  0  0  0  0  0  0
    9.5362   -2.3688    0.0404 O   0  0  0  0  0  0  0  0  0  0  0  0
    9.5611   -0.0250    0.0411 C   0  0  0  0  0  0  0  0  0  0  0  0
   10.9244   -0.0785    0.0415 O   0  0  0  0  0  0  0  0  0  0  0  0
    8.9359    1.2037    0.0417 C   0  0  0  0  0  0  0  0  0  0  0  0
    7.5394    1.2557    0.0417 C   0  0  0  0  0  0  0  0  0  0  0  0
    6.7313    0.0851    0.0413 C   0  0  0  0  0  0  0  0  0  0  0  0
    5.2940    0.1014    0.0412 C   0  0  0  0  0  0  0  0  0  0  0  0
    4.5126    1.2857    0.0406 C   0  0  0  0  0  0  0  0  0  0  0  0
    3.1217    1.2342    0.0414 C   0  0  0  0  0  0  0  0  0  0  0  0
    2.3840    2.3827    0.0409 O   0  0  0  0  0  0  0  0  0  0  0  0
    0.8141   -0.9561    0.0450 H   0  0  0  0  0  0  0  0  0  0  0  0
    2.7240   -2.1323    0.0426 H   0  0  0  0  0  0  0  0  0  0  0  0
    6.3086   -4.0746    0.0432 H   0  0  0  0  0  0  0  0  0  0  0  0
    8.8895   -3.1059    0.0401 H   0  0  0  0  0  0  0  0  0  0  0  0
   11.1308   -1.0352    0.0410 H   0  0  0  0  0  0  0  0  0  0  0  0
    9.5237    2.1168    0.0428 H   0  0  0  0  0  0  0  0  0  0  0  0
    7.0927    2.2463    0.0428 H   0  0  0  0  0  0  0  0  0  0  0  0
    4.9909    2.2588    0.0393 H   0  0  0  0  0  0  0  0  0  0  0  0
    2.9742    3.1520    0.0418 H   0  0  0  0  0  0  0  0  0  0  0  0
  1  2  1  0  0  0  0
  1 20  1  0  0  0  0
  2  3  1  0  0  0  0
  2 18  2  0  0  0  0
  3  4  2  0  0  0  0
  3 21  1  0  0  0  0
  4  5  1  0  0  0  0
  4 16  1  0  0  0  0
  5  6  2  0  0  0  0
  6  7  1  0  0  0  0
  6  8  1  0  0  0  0
  7 22  1  0  0  0  0
  8  9  1  0  0  0  0
  8 15  2  0  0  0  0
  9 10  1  0  0  0  0
  9 11  2  0  0  0  0
 10 23  1  0  0  0  0
 11 12  1  0  0  0  0
 11 13  1  0  0  0  0
 12 24  1  0  0  0  0
 13 14  2  0  0  0  0
 13 25  1  0  0  0  0
 14 15  1  0  0  0  0
 14 26  1  0  0  0  0
 15 16  1  0  0  0  0
 16 17  2  0  0  0  0
 17 18  1  0  0  0  0
 17 27  1  0  0  0  0
 18 19  1  0  0  0  0
 19 28  1  0  0  0  0
M  END
$$$$
