
 OpenBabel01112422433D

 45 48  0  0  0  0  0  0  0  0999 V2000
    1.4058   -0.1049   -0.0234 C   0  0  0  0  0  0  0  0  0  0  0  0
    0.5923   -1.2374    0.0164 C   0  0  0  0  0  0  0  0  0  0  0  0
   -0.8026   -1.1192    0.0793 C   0  0  0  0  0  0  0  0  0  0  0  0
   -1.6503   -2.2426    0.1290 N   0  0  0  0  0  0  0  0  0  0  0  0
   -1.3327   -3.4687    0.7187 C   0  0  0  0  0  0  0  0  0  0  0  0
   -1.8841   -4.5679    0.1924 N   0  0  0  0  0  0  0  0  0  0  0  0
   -1.5284   -5.7408    0.7480 C   0  0  0  0  0  0  0  0  0  0  0  0
   -0.6429   -5.8563    1.7948 C   0  0  0  0  0  0  0  0  0  0  0  0
   -0.1321   -4.6759    2.2898 C   0  0  0  0  0  0  0  0  0  0  0  0
    0.8358   -4.5913    3.3941 C   0  0  0  0  0  0  0  0  0  0  0  0
    1.7981   -5.5784    3.6485 C   0  0  0  0  0  0  0  0  0  0  0  0
    2.7038   -5.4307    4.7000 C   0  0  0  0  0  0  0  0  0  0  0  0
    2.6273   -4.2923    5.4825 C   0  0  0  0  0  0  0  0  0  0  0  0
    1.7281   -3.3111    5.2798 N   0  0  0  0  0  0  0  0  0  0  0  0
    0.8675   -3.4795    4.2433 C   0  0  0  0  0  0  0  0  0  0  0  0
   -0.4913   -3.4907    1.7628 N   0  0  0  0  0  0  0  0  0  0  0  0
   -1.3698    0.1607    0.0614 C   0  0  0  0  0  0  0  0  0  0  0  0
   -0.5557    1.2973    0.0884 C   0  0  0  0  0  0  0  0  0  0  0  0
   -1.0162    2.5832    0.1917 O   0  0  0  0  0  0  0  0  0  0  0  0
   -2.2486    2.7207    0.9058 C   0  0  0  0  0  0  0  0  0  0  0  0
   -2.2856    4.1023    1.5450 C   0  0  0  0  0  0  0  0  0  0  0  0
   -3.5136    4.3167    2.2768 N   0  0  0  0  0  0  0  0  0  0  0  0
   -3.7417    4.0033    3.5868 C   0  0  0  0  0  0  0  0  0  0  0  0
   -5.0549    4.3485    3.8081 C   0  0  0  0  0  0  0  0  0  0  0  0
   -5.6194    4.8658    2.6704 N   0  0  0  0  0  0  0  0  0  0  0  0
   -4.6660    4.8403    1.7667 C   0  0  0  0  0  0  0  0  0  0  0  0
    0.8303    1.1619    0.0167 C   0  0  0  0  0  0  0  0  0  0  0  0
    2.4864   -0.2149   -0.0610 H   0  0  0  0  0  0  0  0  0  0  0  0
    1.0646   -2.2165    0.0025 H   0  0  0  0  0  0  0  0  0  0  0  0
   -2.1457   -2.4256   -0.7341 H   0  0  0  0  0  0  0  0  0  0  0  0
   -1.9894   -6.6197    0.3059 H   0  0  0  0  0  0  0  0  0  0  0  0
   -0.3865   -6.8240    2.2023 H   0  0  0  0  0  0  0  0  0  0  0  0
    1.8747   -6.4595    3.0172 H   0  0  0  0  0  0  0  0  0  0  0  0
    3.4577   -6.1843    4.8978 H   0  0  0  0  0  0  0  0  0  0  0  0
    3.3099   -4.1321    6.3119 H   0  0  0  0  0  0  0  0  0  0  0  0
    0.1699   -2.6548    4.1069 H   0  0  0  0  0  0  0  0  0  0  0  0
   -2.4517    0.2477    0.0776 H   0  0  0  0  0  0  0  0  0  0  0  0
   -2.3450    1.9673    1.6990 H   0  0  0  0  0  0  0  0  0  0  0  0
   -3.0796    2.6031    0.2001 H   0  0  0  0  0  0  0  0  0  0  0  0
   -2.1898    4.8898    0.7889 H   0  0  0  0  0  0  0  0  0  0  0  0
   -1.4468    4.2302    2.2401 H   0  0  0  0  0  0  0  0  0  0  0  0
   -2.9888    3.5695    4.2304 H   0  0  0  0  0  0  0  0  0  0  0  0
   -5.6240    4.2498    4.7235 H   0  0  0  0  0  0  0  0  0  0  0  0
   -4.7611    5.1761    0.7422 H   0  0  0  0  0  0  0  0  0  0  0  0
    1.4654    2.0435    0.0182 H   0  0  0  0  0  0  0  0  0  0  0  0
  1  2  1  0  0  0  0
  1 27  2  0  0  0  0
  1 28  1  0  0  0  0
  2  3  2  0  0  0  0
  2 29  1  0  0  0  0
  3  4  1  0  0  0  0
  3 17  1  0  0  0  0
  4  5  1  0  0  0  0
  4 30  1  0  0  0  0
  5  6  1  0  0  0  0
  5 16  2  0  0  0  0
  6  7  2  0  0  0  0
  7  8  1  0  0  0  0
  7 31  1  0  0  0  0
  8  9  2  0  0  0  0
  8 32  1  0  0  0  0
  9 10  1  0  0  0  0
  9 16  1  0  0  0  0
 10 11  1  0  0  0  0
 10 15  2  0  0  0  0
 11 12  2  0  0  0  0
 11 33  1  0  0  0  0
 12 13  1  0  0  0  0
 12 34  1  0  0  0  0
 13 14  2  0  0  0  0
 13 35  1  0  0  0  0
 14 15  1  0  0  0  0
 15 36  1  0  0  0  0
 17 18  2  0  0  0  0
 17 37  1  0  0  0  0
 18 19  1  0  0  0  0
 18 27  1  0  0  0  0
 19 20  1  0  0  0  0
 20 21  1  0  0  0  0
 20 38  1  0  0  0  0
 20 39  1  0  0  0  0
 21 22  1  0  0  0  0
 21 40  1  0  0  0  0
 21 41  1  0  0  0  0
 22 23  1  0  0  0  0
 22 26  1  0  0  0  0
 23 24  2  0  0  0  0
 23 42  1  0  0  0  0
 24 25  1  0  0  0  0
 24 43  1  0  0  0  0
 25 26  2  0  0  0  0
 26 44  1  0  0  0  0
 27 45  1  0  0  0  0
M  END
$$$$
