
 OpenBabel01112422343D

 42 47  0  0  0  0  0  0  0  0999 V2000
    1.0041   -0.1641   -0.0495 C   0  0  0  0  0  0  0  0  0  0  0  0
    2.5073   -0.1970   -0.0690 C   0  0  0  0  0  0  0  0  0  0  0  0
    3.2017    1.0126   -0.0442 C   0  0  0  0  0  0  0  0  0  0  0  0
    4.5886    1.0356   -0.0366 C   0  0  0  0  0  0  0  0  0  0  0  0
    5.2621   -0.1894   -0.0524 C   0  0  0  0  0  0  0  0  0  0  0  0
    6.6220   -0.3874   -0.0141 N   0  0  0  0  0  0  0  0  0  0  0  0
    6.9368   -1.7228   -0.0154 C   0  0  0  0  0  0  0  0  0  0  0  0
    8.1726   -2.3868    0.0920 C   0  0  0  0  0  0  0  0  0  0  0  0
    9.2713   -1.5600    0.3103 C   0  0  0  0  0  0  0  0  0  0  0  0
   10.5007   -2.1200    0.5610 C   0  0  0  0  0  0  0  0  0  0  0  0
   10.6669   -3.4950    0.3795 C   0  0  0  0  0  0  0  0  0  0  0  0
   11.8372   -4.2687    0.5155 C   0  0  0  0  0  0  0  0  0  0  0  0
   11.6317   -5.2868   -0.3631 C   0  0  0  0  0  0  0  0  0  0  0  0
   10.2668   -5.5242   -0.3088 N   0  0  0  0  0  0  0  0  0  0  0  0
    9.8676   -6.9073   -0.4340 C   0  0  0  0  0  0  0  0  0  0  0  0
    9.5907   -4.3443   -0.0067 C   0  0  0  0  0  0  0  0  0  0  0  0
    8.2436   -3.8264    0.0042 C   0  0  0  0  0  0  0  0  0  0  0  0
    6.9765   -4.4503   -0.0489 C   0  0  0  0  0  0  0  0  0  0  0  0
    5.6984   -3.7558   -0.1315 C   0  0  0  0  0  0  0  0  0  0  0  0
    5.7292   -2.3383   -0.1131 C   0  0  0  0  0  0  0  0  0  0  0  0
    4.6292   -1.4413   -0.0977 C   0  0  0  0  0  0  0  0  0  0  0  0
    3.2160   -1.4267   -0.1000 C   0  0  0  0  0  0  0  0  0  0  0  0
    4.6306   -4.6946   -0.1631 C   0  0  0  0  0  0  0  0  0  0  0  0
    3.4034   -4.6195   -0.1426 O   0  0  0  0  0  0  0  0  0  0  0  0
    5.2818   -5.9026   -0.1434 N   0  0  0  0  0  0  0  0  0  0  0  0
    6.6385   -5.8390    0.0966 C   0  0  0  0  0  0  0  0  0  0  0  0
    7.2368   -6.8269    0.5092 O   0  0  0  0  0  0  0  0  0  0  0  0
    0.6324    0.8694   -0.0479 H   0  0  0  0  0  0  0  0  0  0  0  0
    0.6243   -0.6485    0.8533 H   0  0  0  0  0  0  0  0  0  0  0  0
    0.5993   -0.6544   -0.9385 H   0  0  0  0  0  0  0  0  0  0  0  0
    2.6672    1.9593   -0.0209 H   0  0  0  0  0  0  0  0  0  0  0  0
    5.1267    1.9788   -0.0077 H   0  0  0  0  0  0  0  0  0  0  0  0
    7.2888    0.3627    0.0257 H   0  0  0  0  0  0  0  0  0  0  0  0
    9.2014   -0.4789    0.3477 H   0  0  0  0  0  0  0  0  0  0  0  0
   11.3560   -1.4923    0.7906 H   0  0  0  0  0  0  0  0  0  0  0  0
   12.7818   -3.9842    0.9536 H   0  0  0  0  0  0  0  0  0  0  0  0
   12.3185   -5.9843   -0.8292 H   0  0  0  0  0  0  0  0  0  0  0  0
    8.9148   -7.0083   -0.9323 H   0  0  0  0  0  0  0  0  0  0  0  0
    9.9016   -7.3269    0.5787 H   0  0  0  0  0  0  0  0  0  0  0  0
   10.6156   -7.4346   -1.0367 H   0  0  0  0  0  0  0  0  0  0  0  0
    2.6480   -2.3583   -0.1106 H   0  0  0  0  0  0  0  0  0  0  0  0
    4.7776   -6.7446   -0.0029 H   0  0  0  0  0  0  0  0  0  0  0  0
  1  2  1  0  0  0  0
  1 28  1  0  0  0  0
  1 29  1  0  0  0  0
  1 30  1  0  0  0  0
  2  3  1  0  0  0  0
  2 22  2  0  0  0  0
  3  4  2  0  0  0  0
  3 31  1  0  0  0  0
  4  5  1  0  0  0  0
  4 32  1  0  0  0  0
  5  6  1  0  0  0  0
  5 21  2  0  0  0  0
  6  7  1  0  0  0  0
  6 33  1  0  0  0  0
  7  8  1  0  0  0  0
  7 20  2  0  0  0  0
  8  9  1  0  0  0  0
  8 17  2  0  0  0  0
  9 10  2  0  0  0  0
  9 34  1  0  0  0  0
 10 11  1  0  0  0  0
 10 35  1  0  0  0  0
 11 12  1  0  0  0  0
 11 16  2  0  0  0  0
 12 13  2  0  0  0  0
 12 36  1  0  0  0  0
 13 14  1  0  0  0  0
 13 37  1  0  0  0  0
 14 15  1  0  0  0  0
 14 16  1  0  0  0  0
 15 38  1  0  0  0  0
 15 39  1  0  0  0  0
 15 40  1  0  0  0  0
 16 17  1  0  0  0  0
 17 18  1  0  0  0  0
 18 19  2  0  0  0  0
 18 26  1  0  0  0  0
 19 20  1  0  0  0  0
 19 23  1  0  0  0  0
 20 21  1  0  0  0  0
 21 22  1  0  0  0  0
 22 41  1  0  0  0  0
 23 24  2  0  0  0  0
 23 25  1  0  0  0  0
 25 26  1  0  0  0  0
 25 42  1  0  0  0  0
 26 27  2  0  0  0  0
M  END
$$$$
