
 OpenBabel01112422473D

 66 69  0  0  1  0  0  0  0  0999 V2000
    3.3431   -1.0908    2.3044 O   0  0  0  0  0  0  0  0  0  0  0  0
    3.4747   -0.5678    1.2046 C   0  0  0  0  0  0  0  0  0  0  0  0
    2.9837    0.6814    0.8958 N   0  0  0  0  0  0  0  0  0  0  0  0
    2.2294    1.4901    1.8693 C   0  0  1  0  0  0  0  0  0  0  0  0
    3.1714    2.4169    2.6754 C   0  0  0  0  0  0  0  0  0  0  0  0
    4.1010    3.1719    1.8335 N   0  0  0  0  0  0  0  0  0  0  0  0
    3.6062    4.4353    1.3125 C   0  0  0  0  0  0  0  0  0  0  0  0
    2.1176    4.5702    0.9917 C   0  0  0  0  0  0  0  0  0  0  0  0
    1.5075    3.3802    0.2527 C   0  0  0  0  0  0  0  0  0  0  0  0
    1.0666    2.2292    1.1713 C   0  0  3  0  0  0  0  0  0  0  0  0
    0.1676    2.7214    2.1859 O   0  0  0  0  0  0  0  0  0  0  0  0
   -1.1105    2.9523    1.8106 C   0  0  0  0  0  0  0  0  0  0  0  0
   -1.5816    2.7970    0.6912 O   0  0  0  0  0  0  0  0  0  0  0  0
   -1.9061    3.4268    2.9655 C   0  0  0  0  0  0  0  0  0  0  0  0
   -3.2603    3.7216    2.7918 C   0  0  0  0  0  0  0  0  0  0  0  0
   -4.0223    4.1331    3.8881 C   0  0  0  0  0  0  0  0  0  0  0  0
   -5.3253    4.4737    3.6617 O   0  0  0  0  0  0  0  0  0  0  0  0
   -3.4641    4.2326    5.1810 C   0  0  0  0  0  0  0  0  0  0  0  0
   -4.3462    4.6256    6.3235 C   0  0  0  0  0  0  0  0  0  0  0  0
   -5.5058    4.2296    6.3494 O   0  0  0  0  0  0  0  0  0  0  0  0
   -3.8433    5.3537    7.5218 C   0  0  0  0  0  0  0  0  0  0  0  0
   -2.8284    6.3303    7.4195 C   0  0  0  0  0  0  0  0  0  0  0  0
   -2.3177    6.8312    6.2524 O   0  0  0  0  0  0  0  0  0  0  0  0
   -2.1918    6.8249    8.5595 C   0  0  0  0  0  0  0  0  0  0  0  0
   -2.5989    6.4189    9.8219 C   0  0  0  0  0  0  0  0  0  0  0  0
   -3.6636    5.5324    9.9448 C   0  0  0  0  0  0  0  0  0  0  0  0
   -4.2973    4.9847    8.8108 C   0  0  0  0  0  0  0  0  0  0  0  0
   -5.3777    4.0075    9.1530 C   0  0  0  0  0  0  0  0  0  0  0  0
   -6.0389    4.1134   10.1750 O   0  0  0  0  0  0  0  0  0  0  0  0
   -5.3793    2.8855    8.4095 O   0  0  0  0  0  0  0  0  0  0  0  0
   -2.1070    3.9080    5.3332 C   0  0  0  0  0  0  0  0  0  0  0  0
   -1.3827    3.8688    6.4916 O   0  0  0  0  0  0  0  0  0  0  0  0
   -1.3343    3.5510    4.2289 C   0  0  0  0  0  0  0  0  0  0  0  0
    4.1269   -1.3138    0.0923 C   0  0  0  0  0  0  0  0  0  0  0  0
    4.0192   -2.7124    0.0912 C   0  0  0  0  0  0  0  0  0  0  0  0
    4.5825   -3.4649   -0.9417 C   0  0  0  0  0  0  0  0  0  0  0  0
    5.2616   -2.8138   -1.9656 C   0  0  0  0  0  0  0  0  0  0  0  0
    5.8289   -3.5069   -2.9921 O   0  0  0  0  0  0  0  0  0  0  0  0
    5.3902   -1.4284   -1.9710 C   0  0  0  0  0  0  0  0  0  0  0  0
    4.8266   -0.6725   -0.9388 C   0  0  0  0  0  0  0  0  0  0  0  0
    3.1040    1.0472   -0.0382 H   0  0  0  0  0  0  0  0  0  0  0  0
    1.7838    0.8004    2.5991 H   0  0  0  0  0  0  0  0  0  0  0  0
    3.7909    1.7809    3.3206 H   0  0  0  0  0  0  0  0  0  0  0  0
    2.6141    3.0721    3.3558 H   0  0  0  0  0  0  0  0  0  0  0  0
    4.4313    2.5652    1.0854 H   0  0  0  0  0  0  0  0  0  0  0  0
    4.1805    4.6656    0.4065 H   0  0  0  0  0  0  0  0  0  0  0  0
    3.8683    5.2241    2.0282 H   0  0  0  0  0  0  0  0  0  0  0  0
    2.0018    5.4581    0.3563 H   0  0  0  0  0  0  0  0  0  0  0  0
    1.5567    4.7893    1.9078 H   0  0  0  0  0  0  0  0  0  0  0  0
    2.1877    3.0172   -0.5249 H   0  0  0  0  0  0  0  0  0  0  0  0
    0.6190    3.7533   -0.2704 H   0  0  0  0  0  0  0  0  0  0  0  0
    0.5263    1.4849    0.5692 H   0  0  0  0  0  0  0  0  0  0  0  0
   -3.7060    3.6361    1.8018 H   0  0  0  0  0  0  0  0  0  0  0  0
   -5.6358    4.0917    2.8149 H   0  0  0  0  0  0  0  0  0  0  0  0
   -2.8620    6.6106    5.4805 H   0  0  0  0  0  0  0  0  0  0  0  0
   -1.3588    7.5187    8.4584 H   0  0  0  0  0  0  0  0  0  0  0  0
   -2.0945    6.7936   10.7095 H   0  0  0  0  0  0  0  0  0  0  0  0
   -3.9850    5.2362   10.9449 H   0  0  0  0  0  0  0  0  0  0  0  0
   -5.5631    3.1111    7.4652 H   0  0  0  0  0  0  0  0  0  0  0  0
   -1.8983    4.0442    7.2897 H   0  0  0  0  0  0  0  0  0  0  0  0
   -0.2778    3.3488    4.3906 H   0  0  0  0  0  0  0  0  0  0  0  0
    3.4839   -3.2171    0.8937 H   0  0  0  0  0  0  0  0  0  0  0  0
    4.4823   -4.5455   -0.9269 H   0  0  0  0  0  0  0  0  0  0  0  0
    5.6812   -4.4562   -2.8482 H   0  0  0  0  0  0  0  0  0  0  0  0
    5.9392   -0.9406   -2.7728 H   0  0  0  0  0  0  0  0  0  0  0  0
    4.9658    0.4039   -0.9470 H   0  0  0  0  0  0  0  0  0  0  0  0
  1  2  2  0  0  0  0
  2  3  1  0  0  0  0
  2 34  1  0  0  0  0
  3  4  1  0  0  0  0
  3 41  1  0  0  0  0
  4  5  1  0  0  0  0
  4 10  1  0  0  0  0
  4 42  1  1  0  0  0
  5  6  1  0  0  0  0
  5 43  1  0  0  0  0
  5 44  1  0  0  0  0
  6  7  1  0  0  0  0
  6 45  1  0  0  0  0
  7  8  1  0  0  0  0
  7 46  1  0  0  0  0
  7 47  1  0  0  0  0
  8  9  1  0  0  0  0
  8 48  1  0  0  0  0
  8 49  1  0  0  0  0
  9 10  1  0  0  0  0
  9 50  1  0  0  0  0
  9 51  1  0  0  0  0
 10 11  1  0  0  0  0
 10 52  1  0  0  0  0
 11 12  1  0  0  0  0
 12 13  2  0  0  0  0
 12 14  1  0  0  0  0
 14 15  1  0  0  0  0
 14 33  2  0  0  0  0
 15 16  2  0  0  0  0
 15 53  1  0  0  0  0
 16 17  1  0  0  0  0
 16 18  1  0  0  0  0
 17 54  1  0  0  0  0
 18 19  1  0  0  0  0
 18 31  2  0  0  0  0
 19 20  2  0  0  0  0
 19 21  1  0  0  0  0
 21 22  1  0  0  0  0
 21 27  2  0  0  0  0
 22 23  1  0  0  0  0
 22 24  2  0  0  0  0
 23 55  1  0  0  0  0
 24 25  1  0  0  0  0
 24 56  1  0  0  0  0
 25 26  2  0  0  0  0
 25 57  1  0  0  0  0
 26 27  1  0  0  0  0
 26 58  1  0  0  0  0
 27 28  1  0  0  0  0
 28 29  2  0  0  0  0
 28 30  1  0  0  0  0
 30 59  1  0  0  0  0
 31 32  1  0  0  0  0
 31 33  1  0  0  0  0
 32 60  1  0  0  0  0
 33 61  1  0  0  0  0
 34 35  1  0  0  0  0
 34 40  2  0  0  0  0
 35 36  2  0  0  0  0
 35 62  1  0  0  0  0
 36 37  1  0  0  0  0
 36 63  1  0  0  0  0
 37 38  1  0  0  0  0
 37 39  2  0  0  0  0
 38 64  1  0  0  0  0
 39 40  1  0  0  0  0
 39 65  1  0  0  0  0
 40 66  1  0  0  0  0
M  END
$$$$
