
 OpenBabel01112422393D

 41 44  0  0  0  0  0  0  0  0999 V2000
    0.9809    0.2595    0.2079 O   0  0  0  0  0  0  0  0  0  0  0  0
    2.2050    0.1668    0.1332 C   0  0  0  0  0  0  0  0  0  0  0  0
    2.9956    1.4205    0.1139 C   0  0  0  0  0  0  0  0  0  0  0  0
    2.2917    2.6427    0.1219 C   0  0  0  0  0  0  0  0  0  0  0  0
    2.9908    3.8334    0.0670 C   0  0  0  0  0  0  0  0  0  0  0  0
    2.3660    5.0473    0.0564 O   0  0  0  0  0  0  0  0  0  0  0  0
    4.3754    3.8140    0.0130 C   0  0  0  0  0  0  0  0  0  0  0  0
    5.0734    4.9863   -0.0480 O   0  0  0  0  0  0  0  0  0  0  0  0
    5.0758    2.6110    0.0126 C   0  0  0  0  0  0  0  0  0  0  0  0
    4.3993    1.3748    0.0659 C   0  0  0  0  0  0  0  0  0  0  0  0
    5.0835    0.0647    0.0516 C   0  0  0  0  0  0  0  0  0  0  0  0
    6.4968   -0.0401    0.0547 C   0  0  0  0  0  0  0  0  0  0  0  0
    7.1228   -1.2788    0.0211 C   0  0  0  0  0  0  0  0  0  0  0  0
    8.4825   -1.4103    0.0211 O   0  0  0  0  0  0  0  0  0  0  0  0
    6.3638   -2.4319   -0.0203 C   0  0  0  0  0  0  0  0  0  0  0  0
    6.9712   -3.6540   -0.0546 O   0  0  0  0  0  0  0  0  0  0  0  0
    4.9786   -2.3672   -0.0254 C   0  0  0  0  0  0  0  0  0  0  0  0
    4.3145   -1.1291    0.0256 C   0  0  0  0  0  0  0  0  0  0  0  0
    2.8806   -1.0538    0.0530 N   0  0  0  0  0  0  0  0  0  0  0  0
    2.0482   -2.2660    0.0449 C   0  0  0  0  0  0  0  0  0  0  0  0
    1.8661   -2.8717    1.4243 C   0  0  0  0  0  0  0  0  0  0  0  0
    1.1206   -2.1989    2.4033 C   0  0  0  0  0  0  0  0  0  0  0  0
    1.0325   -2.6985    3.7045 C   0  0  0  0  0  0  0  0  0  0  0  0
    1.6793   -3.8871    4.0454 C   0  0  0  0  0  0  0  0  0  0  0  0
    1.5886   -4.4102    5.6889 Cl  0  0  0  0  0  0  0  0  0  0  0  0
    2.3780   -4.5991    3.0669 C   0  0  0  0  0  0  0  0  0  0  0  0
    3.1813   -6.0918    3.4034 Cl  0  0  0  0  0  0  0  0  0  0  0  0
    2.4576   -4.0988    1.7614 C   0  0  0  0  0  0  0  0  0  0  0  0
    1.2051    2.6396    0.1608 H   0  0  0  0  0  0  0  0  0  0  0  0
    1.4039    4.8969    0.0770 H   0  0  0  0  0  0  0  0  0  0  0  0
    4.3881    5.6851   -0.0399 H   0  0  0  0  0  0  0  0  0  0  0  0
    6.1572    2.6786   -0.0421 H   0  0  0  0  0  0  0  0  0  0  0  0
    7.1204    0.8463    0.0840 H   0  0  0  0  0  0  0  0  0  0  0  0
    8.8824   -0.5241    0.0549 H   0  0  0  0  0  0  0  0  0  0  0  0
    7.9295   -3.4585   -0.0240 H   0  0  0  0  0  0  0  0  0  0  0  0
    4.4562   -3.3120   -0.0704 H   0  0  0  0  0  0  0  0  0  0  0  0
    2.4533   -2.9921   -0.6689 H   0  0  0  0  0  0  0  0  0  0  0  0
    1.0525   -2.0293   -0.3528 H   0  0  0  0  0  0  0  0  0  0  0  0
    0.6107   -1.2670    2.1635 H   0  0  0  0  0  0  0  0  0  0  0  0
    0.4683   -2.1432    4.4499 H   0  0  0  0  0  0  0  0  0  0  0  0
    3.0029   -4.6683    1.0120 H   0  0  0  0  0  0  0  0  0  0  0  0
  1  2  2  0  0  0  0
  2  3  1  0  0  0  0
  2 19  1  0  0  0  0
  3  4  1  0  0  0  0
  3 10  2  0  0  0  0
  4  5  2  0  0  0  0
  4 29  1  0  0  0  0
  5  6  1  0  0  0  0
  5  7  1  0  0  0  0
  6 30  1  0  0  0  0
  7  8  1  0  0  0  0
  7  9  2  0  0  0  0
  8 31  1  0  0  0  0
  9 10  1  0  0  0  0
  9 32  1  0  0  0  0
 10 11  1  0  0  0  0
 11 12  1  0  0  0  0
 11 18  2  0  0  0  0
 12 13  2  0  0  0  0
 12 33  1  0  0  0  0
 13 14  1  0  0  0  0
 13 15  1  0  0  0  0
 14 34  1  0  0  0  0
 15 16  1  0  0  0  0
 15 17  2  0  0  0  0
 16 35  1  0  0  0  0
 17 18  1  0  0  0  0
 17 36  1  0  0  0  0
 18 19  1  0  0  0  0
 19 20  1  0  0  0  0
 20 21  1  0  0  0  0
 20 37  1  0  0  0  0
 20 38  1  0  0  0  0
 21 22  1  0  0  0  0
 21 28  2  0  0  0  0
 22 23  2  0  0  0  0
 22 39  1  0  0  0  0
 23 24  1  0  0  0  0
 23 40  1  0  0  0  0
 24 25  1  0  0  0  0
 24 26  2  0  0  0  0
 26 27  1  0  0  0  0
 26 28  1  0  0  0  0
 28 41  1  0  0  0  0
M  END
$$$$
