
 OpenBabel01112422413D

 50 53  0  0  0  0  0  0  0  0999 V2000
    0.5268    0.0142   -0.4470 C   0  0  0  0  0  0  0  0  0  0  0  0
    1.8658    0.4463    0.1945 C   0  0  0  0  0  0  0  0  0  0  0  0
    1.5902    0.9103    1.6383 C   0  0  0  0  0  0  0  0  0  0  0  0
    2.7573   -0.8145    0.2446 C   0  0  0  0  0  0  0  0  0  0  0  0
    2.5311    1.6150   -0.5550 C   0  0  0  0  0  0  0  0  0  0  0  0
    1.7575    2.6018   -1.1949 C   0  0  0  0  0  0  0  0  0  0  0  0
    2.3433    3.7240   -1.7951 C   0  0  0  0  0  0  0  0  0  0  0  0
    3.7293    3.8674   -1.8127 C   0  0  0  0  0  0  0  0  0  0  0  0
    4.3802    5.0913   -2.3398 C   0  0  0  0  0  0  0  0  0  0  0  0
    5.4082    5.4599   -1.7573 O   0  0  0  0  0  0  0  0  0  0  0  0
    3.9149    5.9311   -3.3834 N   0  0  0  0  0  0  0  0  0  0  0  0
    4.2981    7.2737   -3.5558 C   0  0  0  0  0  0  0  0  0  0  0  0
    4.9982    8.1992   -2.7607 C   0  0  0  0  0  0  0  0  0  0  0  0
    5.4675    9.3356   -3.4205 C   0  0  0  0  0  0  0  0  0  0  0  0
    6.0768   10.3482   -2.7333 O   0  0  0  0  0  0  0  0  0  0  0  0
    5.3240    9.4922   -4.7921 C   0  0  0  0  0  0  0  0  0  0  0  0
    6.0211   10.4618   -5.4507 O   0  0  0  0  0  0  0  0  0  0  0  0
    4.4284    8.7084   -5.4944 C   0  0  0  0  0  0  0  0  0  0  0  0
    3.8084    7.6604   -4.7985 C   0  0  0  0  0  0  0  0  0  0  0  0
    2.6542    6.8715   -4.9696 C   0  0  0  0  0  0  0  0  0  0  0  0
    1.4119    7.0098   -5.6163 C   0  0  0  0  0  0  0  0  0  0  0  0
    0.6841    8.7329   -5.9164 Br  0  0  0  0  0  0  0  0  0  0  0  0
    0.6498    5.8774   -5.8934 C   0  0  0  0  0  0  0  0  0  0  0  0
    1.2100    4.6328   -5.6503 C   0  0  0  0  0  0  0  0  0  0  0  0
    0.6086    3.4920   -6.1094 O   0  0  0  0  0  0  0  0  0  0  0  0
    2.3967    4.4914   -4.9149 C   0  0  0  0  0  0  0  0  0  0  0  0
    2.9707    3.2598   -4.7718 O   0  0  0  0  0  0  0  0  0  0  0  0
    2.9918    5.6441   -4.3965 C   0  0  0  0  0  0  0  0  0  0  0  0
    4.5191    2.8978   -1.1835 C   0  0  0  0  0  0  0  0  0  0  0  0
    3.9264    1.7935   -0.5564 C   0  0  0  0  0  0  0  0  0  0  0  0
    0.1131   -0.8663    0.0586 H   0  0  0  0  0  0  0  0  0  0  0  0
    0.6574   -0.2394   -1.5054 H   0  0  0  0  0  0  0  0  0  0  0  0
   -0.2395    0.7938   -0.3778 H   0  0  0  0  0  0  0  0  0  0  0  0
    1.1106    0.1178    2.2235 H   0  0  0  0  0  0  0  0  0  0  0  0
    0.9293    1.7852    1.6596 H   0  0  0  0  0  0  0  0  0  0  0  0
    2.5172    1.1894    2.1535 H   0  0  0  0  0  0  0  0  0  0  0  0
    2.2286   -1.6518    0.7150 H   0  0  0  0  0  0  0  0  0  0  0  0
    3.6675   -0.6560    0.8329 H   0  0  0  0  0  0  0  0  0  0  0  0
    3.0542   -1.1313   -0.7619 H   0  0  0  0  0  0  0  0  0  0  0  0
    0.6718    2.5393   -1.2137 H   0  0  0  0  0  0  0  0  0  0  0  0
    1.6854    4.4671   -2.2350 H   0  0  0  0  0  0  0  0  0  0  0  0
    5.1891    8.0241   -1.7075 H   0  0  0  0  0  0  0  0  0  0  0  0
    5.4887   10.5360   -1.9775 H   0  0  0  0  0  0  0  0  0  0  0  0
    6.6451   10.8079   -4.7820 H   0  0  0  0  0  0  0  0  0  0  0  0
    4.2334    8.8800   -6.5458 H   0  0  0  0  0  0  0  0  0  0  0  0
   -0.3338    5.9835   -6.3375 H   0  0  0  0  0  0  0  0  0  0  0  0
   -0.1820    3.7451   -6.6192 H   0  0  0  0  0  0  0  0  0  0  0  0
    2.4872    2.6850   -5.3997 H   0  0  0  0  0  0  0  0  0  0  0  0
    5.6035    3.0135   -1.1506 H   0  0  0  0  0  0  0  0  0  0  0  0
    4.5856    1.0884   -0.0566 H   0  0  0  0  0  0  0  0  0  0  0  0
  1  2  1  0  0  0  0
  1 31  1  0  0  0  0
  1 32  1  0  0  0  0
  1 33  1  0  0  0  0
  2  3  1  0  0  0  0
  2  4  1  0  0  0  0
  2  5  1  0  0  0  0
  3 34  1  0  0  0  0
  3 35  1  0  0  0  0
  3 36  1  0  0  0  0
  4 37  1  0  0  0  0
  4 38  1  0  0  0  0
  4 39  1  0  0  0  0
  5  6  1  0  0  0  0
  5 30  2  0  0  0  0
  6  7  2  0  0  0  0
  6 40  1  0  0  0  0
  7  8  1  0  0  0  0
  7 41  1  0  0  0  0
  8  9  1  0  0  0  0
  8 29  2  0  0  0  0
  9 10  2  0  0  0  0
  9 11  1  0  0  0  0
 11 12  1  0  0  0  0
 11 28  1  0  0  0  0
 12 13  1  0  0  0  0
 12 19  2  0  0  0  0
 13 14  2  0  0  0  0
 13 42  1  0  0  0  0
 14 15  1  0  0  0  0
 14 16  1  0  0  0  0
 15 43  1  0  0  0  0
 16 17  1  0  0  0  0
 16 18  2  0  0  0  0
 17 44  1  0  0  0  0
 18 19  1  0  0  0  0
 18 45  1  0  0  0  0
 19 20  1  0  0  0  0
 20 21  1  0  0  0  0
 20 28  2  0  0  0  0
 21 22  1  0  0  0  0
 21 23  2  0  0  0  0
 23 24  1  0  0  0  0
 23 46  1  0  0  0  0
 24 25  1  0  0  0  0
 24 26  2  0  0  0  0
 25 47  1  0  0  0  0
 26 27  1  0  0  0  0
 26 28  1  0  0  0  0
 27 48  1  0  0  0  0
 29 30  1  0  0  0  0
 29 49  1  0  0  0  0
 30 50  1  0  0  0  0
M  END
$$$$
