
 OpenBabel01112422153D

 49 51  0  0  0  0  0  0  0  0999 V2000
    3.3873   -5.1375   -0.3377 N   0  0  0  0  0  0  0  0  0  0  0  0
    4.2190   -3.9437   -0.2567 C   0  0  0  0  0  0  0  0  0  0  0  0
    4.7651   -3.7852    1.1595 C   0  0  0  0  0  0  0  0  0  0  0  0
    5.6433   -2.5398    1.2768 C   0  0  0  0  0  0  0  0  0  0  0  0
    6.1851   -2.3867    2.6987 C   0  0  0  0  0  0  0  0  0  0  0  0
    7.0594   -1.1415    2.8145 C   0  0  0  0  0  0  0  0  0  0  0  0
    7.6095   -0.9663    4.2293 C   0  0  0  0  0  0  0  0  0  0  0  0
    8.4714    0.2935    4.3107 C   0  0  0  0  0  0  0  0  0  0  0  0
    9.0148    0.4658    5.6650 N   0  0  0  0  0  0  0  0  0  0  0  0
   10.3916    0.5184    5.8508 C   0  0  0  0  0  0  0  0  0  0  0  0
   11.3403    1.3383    5.3760 C   0  0  0  0  0  0  0  0  0  0  0  0
   11.1216    2.4837    4.5870 C   0  0  0  0  0  0  0  0  0  0  0  0
   11.8308    3.0970    3.5770 C   0  0  0  0  0  0  0  0  0  0  0  0
   11.1055    4.2488    3.1675 C   0  0  0  0  0  0  0  0  0  0  0  0
   11.3113    5.2278    2.1792 C   0  0  0  0  0  0  0  0  0  0  0  0
   10.3730    6.2539    2.0292 C   0  0  0  0  0  0  0  0  0  0  0  0
    9.2570    6.3245    2.8618 C   0  0  0  0  0  0  0  0  0  0  0  0
    9.0394    5.3708    3.8611 C   0  0  0  0  0  0  0  0  0  0  0  0
    9.9753    4.3373    3.9781 C   0  0  0  0  0  0  0  0  0  0  0  0
   10.0098    3.2584    4.8308 N   0  0  0  0  0  0  0  0  0  0  0  0
   12.6540    0.8420    5.8388 C   0  0  0  0  0  0  0  0  0  0  0  0
   13.7490    1.2809    5.5383 O   0  0  0  0  0  0  0  0  0  0  0  0
   12.4126   -0.2059    6.6574 N   0  0  0  0  0  0  0  0  0  0  0  0
   11.0948   -0.4729    6.7128 C   0  0  0  0  0  0  0  0  0  0  0  0
   10.5395   -1.3659    7.3319 O   0  0  0  0  0  0  0  0  0  0  0  0
    2.9855   -5.2076   -1.2708 H   0  0  0  0  0  0  0  0  0  0  0  0
    2.6017   -5.0527    0.3065 H   0  0  0  0  0  0  0  0  0  0  0  0
    3.6258   -3.0656   -0.5358 H   0  0  0  0  0  0  0  0  0  0  0  0
    5.0437   -4.0307   -0.9723 H   0  0  0  0  0  0  0  0  0  0  0  0
    5.3514   -4.6716    1.4330 H   0  0  0  0  0  0  0  0  0  0  0  0
    3.9354   -3.7132    1.8737 H   0  0  0  0  0  0  0  0  0  0  0  0
    5.0613   -1.6507    1.0063 H   0  0  0  0  0  0  0  0  0  0  0  0
    6.4768   -2.6084    0.5699 H   0  0  0  0  0  0  0  0  0  0  0  0
    6.7689   -3.2749    2.9688 H   0  0  0  0  0  0  0  0  0  0  0  0
    5.3505   -2.3185    3.4063 H   0  0  0  0  0  0  0  0  0  0  0  0
    6.4738   -0.2560    2.5387 H   0  0  0  0  0  0  0  0  0  0  0  0
    7.8920   -1.2118    2.1036 H   0  0  0  0  0  0  0  0  0  0  0  0
    8.2037   -1.8456    4.5099 H   0  0  0  0  0  0  0  0  0  0  0  0
    6.7827   -0.9004    4.9474 H   0  0  0  0  0  0  0  0  0  0  0  0
    7.8712    1.1732    4.0544 H   0  0  0  0  0  0  0  0  0  0  0  0
    9.2784    0.2201    3.5699 H   0  0  0  0  0  0  0  0  0  0  0  0
    8.6170   -0.2195    6.3169 H   0  0  0  0  0  0  0  0  0  0  0  0
   12.7685    2.7481    3.1629 H   0  0  0  0  0  0  0  0  0  0  0  0
   12.1841    5.1815    1.5352 H   0  0  0  0  0  0  0  0  0  0  0  0
   10.5198    7.0030    1.2556 H   0  0  0  0  0  0  0  0  0  0  0  0
    8.5428    7.1340    2.7312 H   0  0  0  0  0  0  0  0  0  0  0  0
    8.1736    5.4336    4.5125 H   0  0  0  0  0  0  0  0  0  0  0  0
    9.3041    3.0491    5.5257 H   0  0  0  0  0  0  0  0  0  0  0  0
   13.1273   -0.7369    7.1231 H   0  0  0  0  0  0  0  0  0  0  0  0
  1  2  1  0  0  0  0
  1 26  1  0  0  0  0
  1 27  1  0  0  0  0
  2  3  1  0  0  0  0
  2 28  1  0  0  0  0
  2 29  1  0  0  0  0
  3  4  1  0  0  0  0
  3 30  1  0  0  0  0
  3 31  1  0  0  0  0
  4  5  1  0  0  0  0
  4 32  1  0  0  0  0
  4 33  1  0  0  0  0
  5  6  1  0  0  0  0
  5 34  1  0  0  0  0
  5 35  1  0  0  0  0
  6  7  1  0  0  0  0
  6 36  1  0  0  0  0
  6 37  1  0  0  0  0
  7  8  1  0  0  0  0
  7 38  1  0  0  0  0
  7 39  1  0  0  0  0
  8  9  1  0  0  0  0
  8 40  1  0  0  0  0
  8 41  1  0  0  0  0
  9 10  1  0  0  0  0
  9 42  1  0  0  0  0
 10 11  2  0  0  0  0
 10 24  1  0  0  0  0
 11 12  1  0  0  0  0
 11 21  1  0  0  0  0
 12 13  2  0  0  0  0
 12 20  1  0  0  0  0
 13 14  1  0  0  0  0
 13 43  1  0  0  0  0
 14 15  1  0  0  0  0
 14 19  2  0  0  0  0
 15 16  2  0  0  0  0
 15 44  1  0  0  0  0
 16 17  1  0  0  0  0
 16 45  1  0  0  0  0
 17 18  2  0  0  0  0
 17 46  1  0  0  0  0
 18 19  1  0  0  0  0
 18 47  1  0  0  0  0
 19 20  1  0  0  0  0
 20 48  1  0  0  0  0
 21 22  2  0  0  0  0
 21 23  1  0  0  0  0
 23 24  1  0  0  0  0
 23 49  1  0  0  0  0
 24 25  2  0  0  0  0
M  END
$$$$
