
 OpenBabel01112422493D

 57 61  0  0  1  0  0  0  0  0999 V2000
    1.5873    0.9445   -0.3396 C   0  0  0  0  0  0  0  0  0  0  0  0
    2.5485   -0.0738   -0.0923 O   0  0  0  0  0  0  0  0  0  0  0  0
    3.1413   -0.6309   -1.1910 C   0  0  0  0  0  0  0  0  0  0  0  0
    2.8916   -0.2855   -2.5188 C   0  0  0  0  0  0  0  0  0  0  0  0
    3.5815   -0.9237   -3.5536 C   0  0  0  0  0  0  0  0  0  0  0  0
    4.5073   -1.9310   -3.2745 C   0  0  0  0  0  0  0  0  0  0  0  0
    5.2776   -2.5182   -4.3137 N   0  0  0  0  0  0  0  0  0  0  0  0
    5.4599   -3.9534   -4.3446 C   0  0  0  0  0  0  0  0  0  0  0  0
    6.8737   -4.3428   -4.5124 C   0  0  0  0  0  0  0  0  0  0  0  0
    7.3338   -5.6216   -4.2993 C   0  0  0  0  0  0  0  0  0  0  0  0
    8.6096   -5.9974   -4.4925 N   0  0  0  0  0  0  0  0  0  0  0  0
    9.4407   -5.0618   -4.9587 C   0  0  0  0  0  0  0  0  0  0  0  0
   10.7563   -5.4401   -5.2074 N   0  0  0  0  0  0  0  0  0  0  0  0
   11.6525   -4.9065   -6.1454 C   0  0  0  0  0  0  0  0  0  0  0  0
   13.0302   -5.0565   -5.9373 C   0  0  0  0  0  0  0  0  0  0  0  0
   13.9511   -4.4595   -6.8032 C   0  0  0  0  0  0  0  0  0  0  0  0
   13.4963   -3.7205   -7.8885 C   0  0  0  0  0  0  0  0  0  0  0  0
   14.3799   -3.1432   -8.7126 F   0  0  0  0  0  0  0  0  0  0  0  0
   12.1397   -3.5683   -8.1266 C   0  0  0  0  0  0  0  0  0  0  0  0
   11.2238   -4.1544   -7.2522 C   0  0  0  0  0  0  0  0  0  0  0  0
    9.0720   -3.7917   -5.1765 N   0  0  0  0  0  0  0  0  0  0  0  0
    7.8022   -3.4374   -4.9570 C   0  0  0  0  0  0  0  0  0  0  0  0
    7.4014   -2.1040   -5.2279 N   0  0  0  0  0  0  0  0  0  0  0  0
    8.4592   -1.0884   -5.3918 C   0  0  2  0  0  0  0  0  0  0  0  0
    8.3522    0.0666   -4.3611 C   0  0  0  0  0  0  0  0  0  0  0  0
    8.2160    1.3457   -5.1817 C   0  0  0  0  0  0  0  0  0  0  0  0
    8.9161    1.0162   -6.4915 C   0  0  1  0  0  0  0  0  0  0  0  0
   10.3282    1.1361   -6.3507 O   0  0  0  0  0  0  0  0  0  0  0  0
    8.5149   -0.4262   -6.7758 C   0  0  0  0  0  0  0  0  0  0  0  0
    6.0769   -1.6777   -5.0894 C   0  0  0  0  0  0  0  0  0  0  0  0
    5.7108   -0.5635   -5.4645 O   0  0  0  0  0  0  0  0  0  0  0  0
    4.7561   -2.2770   -1.9413 C   0  0  0  0  0  0  0  0  0  0  0  0
    4.0828   -1.6217   -0.9085 C   0  0  0  0  0  0  0  0  0  0  0  0
    1.1889    1.2705    0.6252 H   0  0  0  0  0  0  0  0  0  0  0  0
    0.7505    0.5614   -0.9328 H   0  0  0  0  0  0  0  0  0  0  0  0
    2.0499    1.8135   -0.8213 H   0  0  0  0  0  0  0  0  0  0  0  0
    2.1796    0.4868   -2.7892 H   0  0  0  0  0  0  0  0  0  0  0  0
    3.3861   -0.6241   -4.5808 H   0  0  0  0  0  0  0  0  0  0  0  0
    4.8896   -4.3188   -5.2077 H   0  0  0  0  0  0  0  0  0  0  0  0
    5.0327   -4.4257   -3.4529 H   0  0  0  0  0  0  0  0  0  0  0  0
    6.6691   -6.4151   -3.9638 H   0  0  0  0  0  0  0  0  0  0  0  0
   10.9271   -6.3894   -4.9098 H   0  0  0  0  0  0  0  0  0  0  0  0
   13.3959   -5.6089   -5.0753 H   0  0  0  0  0  0  0  0  0  0  0  0
   15.0176   -4.5535   -6.6287 H   0  0  0  0  0  0  0  0  0  0  0  0
   11.7971   -2.9912   -8.9793 H   0  0  0  0  0  0  0  0  0  0  0  0
   10.1635   -4.0254   -7.4567 H   0  0  0  0  0  0  0  0  0  0  0  0
    9.4402   -1.5443   -5.2113 H   0  0  0  0  0  0  0  0  0  0  0  0
    9.2727    0.1066   -3.7662 H   0  0  0  0  0  0  0  0  0  0  0  0
    7.5318   -0.0399   -3.6432 H   0  0  0  0  0  0  0  0  0  0  0  0
    8.6586    2.1986   -4.6586 H   0  0  0  0  0  0  0  0  0  0  0  0
    7.1573    1.5654   -5.3637 H   0  0  0  0  0  0  0  0  0  0  0  0
    8.6104    1.6904   -7.2981 H   0  0  0  0  0  0  0  0  0  0  0  0
   10.6195    0.6422   -5.5666 H   0  0  0  0  0  0  0  0  0  0  0  0
    9.2415   -0.9374   -7.4169 H   0  0  0  0  0  0  0  0  0  0  0  0
    7.5416   -0.4582   -7.2757 H   0  0  0  0  0  0  0  0  0  0  0  0
    5.5268   -2.9974   -1.6814 H   0  0  0  0  0  0  0  0  0  0  0  0
    4.3117   -1.8683    0.1256 H   0  0  0  0  0  0  0  0  0  0  0  0
  1  2  1  0  0  0  0
  1 34  1  0  0  0  0
  1 35  1  0  0  0  0
  1 36  1  0  0  0  0
  2  3  1  0  0  0  0
  3  4  1  0  0  0  0
  3 33  2  0  0  0  0
  4  5  2  0  0  0  0
  4 37  1  0  0  0  0
  5  6  1  0  0  0  0
  5 38  1  0  0  0  0
  6  7  1  0  0  0  0
  6 32  2  0  0  0  0
  7  8  1  0  0  0  0
  7 30  1  0  0  0  0
  8  9  1  0  0  0  0
  8 39  1  0  0  0  0
  8 40  1  0  0  0  0
  9 10  1  0  0  0  0
  9 22  2  0  0  0  0
 10 11  2  0  0  0  0
 10 41  1  0  0  0  0
 11 12  1  0  0  0  0
 12 13  1  0  0  0  0
 12 21  2  0  0  0  0
 13 14  1  0  0  0  0
 13 42  1  0  0  0  0
 14 15  1  0  0  0  0
 14 20  2  0  0  0  0
 15 16  2  0  0  0  0
 15 43  1  0  0  0  0
 16 17  1  0  0  0  0
 16 44  1  0  0  0  0
 17 18  1  0  0  0  0
 17 19  2  0  0  0  0
 19 20  1  0  0  0  0
 19 45  1  0  0  0  0
 20 46  1  0  0  0  0
 21 22  1  0  0  0  0
 22 23  1  0  0  0  0
 23 24  1  0  0  0  0
 23 30  1  0  0  0  0
 24 25  1  0  0  0  0
 24 29  1  0  0  0  0
 24 47  1  1  0  0  0
 25 26  1  0  0  0  0
 25 48  1  0  0  0  0
 25 49  1  0  0  0  0
 26 27  1  0  0  0  0
 26 50  1  0  0  0  0
 26 51  1  0  0  0  0
 27 28  1  0  0  0  0
 27 29  1  0  0  0  0
 27 52  1  6  0  0  0
 28 53  1  0  0  0  0
 29 54  1  0  0  0  0
 29 55  1  0  0  0  0
 30 31  2  0  0  0  0
 32 33  1  0  0  0  0
 32 56  1  0  0  0  0
 33 57  1  0  0  0  0
M  END
$$$$
