
 OpenBabel01112422143D

 42 44  0  0  0  0  0  0  0  0999 V2000
    1.1658    5.2841    4.2174 N   0  0  0  0  0  0  0  0  0  0  0  0
    2.1263    4.9765    3.1598 C   0  0  0  0  0  0  0  0  0  0  0  0
    3.2630    4.0708    3.6673 C   0  0  0  0  0  0  0  0  0  0  0  0
    4.2087    3.7881    2.5842 N   0  0  0  0  0  0  0  0  0  0  0  0
    5.3146    2.9411    3.0483 C   0  0  0  0  0  0  0  0  0  0  0  0
    6.3266    2.6755    1.9121 C   0  0  0  0  0  0  0  0  0  0  0  0
    6.9159    3.9465    1.4195 N   0  0  0  0  0  0  0  0  0  0  0  0
    8.3017    4.0887    1.4584 C   0  0  0  0  0  0  0  0  0  0  0  0
    9.2694    3.8088    0.5746 C   0  0  0  0  0  0  0  0  0  0  0  0
    9.0940    3.3027   -0.7326 C   0  0  0  0  0  0  0  0  0  0  0  0
    9.9678    2.8888   -1.7187 C   0  0  0  0  0  0  0  0  0  0  0  0
    9.2082    2.5129   -2.8604 C   0  0  0  0  0  0  0  0  0  0  0  0
    9.5400    2.0264   -4.1387 C   0  0  0  0  0  0  0  0  0  0  0  0
    8.5162    1.7494   -5.0517 C   0  0  0  0  0  0  0  0  0  0  0  0
    7.1816    1.9575   -4.7080 C   0  0  0  0  0  0  0  0  0  0  0  0
    6.8289    2.4466   -3.4462 C   0  0  0  0  0  0  0  0  0  0  0  0
    7.8656    2.7119   -2.5444 C   0  0  0  0  0  0  0  0  0  0  0  0
    7.8242    3.1913   -1.2563 N   0  0  0  0  0  0  0  0  0  0  0  0
   10.5633    4.1758    1.1985 C   0  0  0  0  0  0  0  0  0  0  0  0
   11.6738    4.0404    0.7197 O   0  0  0  0  0  0  0  0  0  0  0  0
   10.2897    4.6955    2.4178 N   0  0  0  0  0  0  0  0  0  0  0  0
    8.9647    4.6999    2.6444 C   0  0  0  0  0  0  0  0  0  0  0  0
    8.3713    5.1162    3.6248 O   0  0  0  0  0  0  0  0  0  0  0  0
    0.4477    5.9039    3.8442 H   0  0  0  0  0  0  0  0  0  0  0  0
    1.6295    5.8006    4.9635 H   0  0  0  0  0  0  0  0  0  0  0  0
    2.5402    5.9153    2.7727 H   0  0  0  0  0  0  0  0  0  0  0  0
    1.6001    4.4839    2.3342 H   0  0  0  0  0  0  0  0  0  0  0  0
    2.8383    3.1322    4.0431 H   0  0  0  0  0  0  0  0  0  0  0  0
    3.7799    4.5671    4.4982 H   0  0  0  0  0  0  0  0  0  0  0  0
    4.5602    4.6617    2.1976 H   0  0  0  0  0  0  0  0  0  0  0  0
    4.9260    1.9804    3.4044 H   0  0  0  0  0  0  0  0  0  0  0  0
    5.8357    3.4272    3.8828 H   0  0  0  0  0  0  0  0  0  0  0  0
    5.8276    2.1722    1.0760 H   0  0  0  0  0  0  0  0  0  0  0  0
    7.1080    2.0001    2.2823 H   0  0  0  0  0  0  0  0  0  0  0  0
    6.5458    4.6921    2.0184 H   0  0  0  0  0  0  0  0  0  0  0  0
   11.0475    2.8668   -1.6354 H   0  0  0  0  0  0  0  0  0  0  0  0
   10.5783    1.8673   -4.4135 H   0  0  0  0  0  0  0  0  0  0  0  0
    8.7679    1.3692   -6.0385 H   0  0  0  0  0  0  0  0  0  0  0  0
    6.4012    1.7370   -5.4329 H   0  0  0  0  0  0  0  0  0  0  0  0
    5.7893    2.6123   -3.1831 H   0  0  0  0  0  0  0  0  0  0  0  0
    6.9789    3.4410   -0.7566 H   0  0  0  0  0  0  0  0  0  0  0  0
   10.9856    5.0452    3.0510 H   0  0  0  0  0  0  0  0  0  0  0  0
  1  2  1  0  0  0  0
  1 24  1  0  0  0  0
  1 25  1  0  0  0  0
  2  3  1  0  0  0  0
  2 26  1  0  0  0  0
  2 27  1  0  0  0  0
  3  4  1  0  0  0  0
  3 28  1  0  0  0  0
  3 29  1  0  0  0  0
  4  5  1  0  0  0  0
  4 30  1  0  0  0  0
  5  6  1  0  0  0  0
  5 31  1  0  0  0  0
  5 32  1  0  0  0  0
  6  7  1  0  0  0  0
  6 33  1  0  0  0  0
  6 34  1  0  0  0  0
  7  8  1  0  0  0  0
  7 35  1  0  0  0  0
  8  9  2  0  0  0  0
  8 22  1  0  0  0  0
  9 10  1  0  0  0  0
  9 19  1  0  0  0  0
 10 11  2  0  0  0  0
 10 18  1  0  0  0  0
 11 12  1  0  0  0  0
 11 36  1  0  0  0  0
 12 13  1  0  0  0  0
 12 17  2  0  0  0  0
 13 14  2  0  0  0  0
 13 37  1  0  0  0  0
 14 15  1  0  0  0  0
 14 38  1  0  0  0  0
 15 16  2  0  0  0  0
 15 39  1  0  0  0  0
 16 17  1  0  0  0  0
 16 40  1  0  0  0  0
 17 18  1  0  0  0  0
 18 41  1  0  0  0  0
 19 20  2  0  0  0  0
 19 21  1  0  0  0  0
 21 22  1  0  0  0  0
 21 42  1  0  0  0  0
 22 23  2  0  0  0  0
M  END
$$$$
