
 OpenBabel01112422383D

 28 31  0  0  0  0  0  0  0  0999 V2000
    1.0173   -0.0730    0.0772 O   0  0  0  0  0  0  0  0  0  0  0  0
    2.2403   -0.0316    0.0753 C   0  0  0  0  0  0  0  0  0  0  0  0
    3.0118   -1.2002    0.0734 O   0  0  0  0  0  0  0  0  0  0  0  0
    4.4238   -1.1902    0.0726 C   0  0  0  0  0  0  0  0  0  0  0  0
    5.1102   -2.3989    0.0717 C   0  0  0  0  0  0  0  0  0  0  0  0
    4.4738   -3.6080    0.0710 O   0  0  0  0  0  0  0  0  0  0  0  0
    6.5023   -2.3888    0.0714 C   0  0  0  0  0  0  0  0  0  0  0  0
    7.1981   -3.5628    0.0708 O   0  0  0  0  0  0  0  0  0  0  0  0
    7.2114   -1.1920    0.0721 C   0  0  0  0  0  0  0  0  0  0  0  0
    6.5088    0.0188    0.0728 C   0  0  0  0  0  0  0  0  0  0  0  0
    7.2460    1.3085    0.0735 C   0  0  0  0  0  0  0  0  0  0  0  0
    8.4697    1.3521    0.0739 O   0  0  0  0  0  0  0  0  0  0  0  0
    6.4771    2.4742    0.0734 O   0  0  0  0  0  0  0  0  0  0  0  0
    5.0666    2.4602    0.0730 C   0  0  0  0  0  0  0  0  0  0  0  0
    4.3888    3.6717    0.0717 C   0  0  0  0  0  0  0  0  0  0  0  0
    5.0428    4.8712    0.0702 O   0  0  0  0  0  0  0  0  0  0  0  0
    2.9978    3.6707    0.0717 C   0  0  0  0  0  0  0  0  0  0  0  0
    2.3126    4.8508    0.0688 O   0  0  0  0  0  0  0  0  0  0  0  0
    2.2829    2.4757    0.0742 C   0  0  0  0  0  0  0  0  0  0  0  0
    2.9795    1.2586    0.0746 C   0  0  0  0  0  0  0  0  0  0  0  0
    4.3762    1.2523    0.0737 C   0  0  0  0  0  0  0  0  0  0  0  0
    5.1108    0.0201    0.0740 C   0  0  0  0  0  0  0  0  0  0  0  0
    3.5123   -3.4355    0.0713 H   0  0  0  0  0  0  0  0  0  0  0  0
    6.5217   -4.2697    0.0715 H   0  0  0  0  0  0  0  0  0  0  0  0
    8.2996   -1.2080    0.0721 H   0  0  0  0  0  0  0  0  0  0  0  0
    6.0011    4.6789    0.0748 H   0  0  0  0  0  0  0  0  0  0  0  0
    2.9954    5.5521    0.0637 H   0  0  0  0  0  0  0  0  0  0  0  0
    1.1952    2.4989    0.0754 H   0  0  0  0  0  0  0  0  0  0  0  0
  1  2  2  0  0  0  0
  2  3  1  0  0  0  0
  2 20  1  0  0  0  0
  3  4  1  0  0  0  0
  4  5  1  0  0  0  0
  4 22  2  0  0  0  0
  5  6  1  0  0  0  0
  5  7  2  0  0  0  0
  6 23  1  0  0  0  0
  7  8  1  0  0  0  0
  7  9  1  0  0  0  0
  8 24  1  0  0  0  0
  9 10  2  0  0  0  0
  9 25  1  0  0  0  0
 10 11  1  0  0  0  0
 10 22  1  0  0  0  0
 11 12  2  0  0  0  0
 11 13  1  0  0  0  0
 13 14  1  0  0  0  0
 14 15  1  0  0  0  0
 14 21  2  0  0  0  0
 15 16  1  0  0  0  0
 15 17  2  0  0  0  0
 16 26  1  0  0  0  0
 17 18  1  0  0  0  0
 17 19  1  0  0  0  0
 18 27  1  0  0  0  0
 19 20  2  0  0  0  0
 19 28  1  0  0  0  0
 20 21  1  0  0  0  0
 21 22  1  0  0  0  0
M  END
$$$$
