
 OpenBabel01112422553D

 51 54  0  0  1  0  0  0  0  0999 V2000
    1.3466    0.1049   -1.6381 C   0  0  0  0  0  0  0  0  0  0  0  0
    2.6514    0.0302   -0.9298 C   0  0  0  0  0  0  0  0  0  0  0  0
    3.3321    1.1376   -0.6158 N   0  0  0  0  0  0  0  0  0  0  0  0
    4.4361    0.6732    0.0005 N   0  0  0  0  0  0  0  0  0  0  0  0
    4.4877   -0.6908    0.0927 C   0  0  0  0  0  0  0  0  0  0  0  0
    5.4180   -1.5576    0.6418 C   0  0  0  0  0  0  0  0  0  0  0  0
    5.1837   -2.8923    0.5701 N   0  0  0  0  0  0  0  0  0  0  0  0
    4.0617   -3.3613   -0.0367 C   0  0  0  0  0  0  0  0  0  0  0  0
    3.9078   -4.8232   -0.0800 C   0  0  0  0  0  0  0  0  0  0  0  0
    4.4346   -5.6557    0.9055 C   0  0  0  0  0  0  0  0  0  0  0  0
    4.2729   -7.0048    0.9488 N   0  0  0  0  0  0  0  0  0  0  0  0
    3.5533   -7.5649   -0.0518 C   0  0  0  0  0  0  0  0  0  0  0  0
    3.0015   -6.8453   -1.0976 C   0  0  0  0  0  0  0  0  0  0  0  0
    2.2657   -7.3139   -2.1417 O   0  0  0  0  0  0  0  0  0  0  0  0
    2.0106   -8.7193   -2.1914 C   0  0  0  0  0  0  0  0  0  0  0  0
    1.1831   -8.9953   -3.4693 C   0  0  1  0  0  0  0  0  0  0  0  0
    1.9429   -8.5705   -4.6633 N   0  0  0  0  0  0  0  0  0  0  0  0
    0.7902  -10.4807   -3.5301 C   0  0  0  0  0  0  0  0  0  0  0  0
   -0.0576  -10.8804   -4.7165 C   0  0  0  0  0  0  0  0  0  0  0  0
   -1.4526  -10.7725   -4.6770 C   0  0  0  0  0  0  0  0  0  0  0  0
   -2.2276  -11.2378   -5.7411 C   0  0  0  0  0  0  0  0  0  0  0  0
   -1.6177  -11.8302   -6.8477 C   0  0  0  0  0  0  0  0  0  0  0  0
   -0.2221  -11.9366   -6.9142 C   0  0  0  0  0  0  0  0  0  0  0  0
    0.4602  -12.6405   -8.0596 C   0  0  0  0  0  0  0  0  0  0  0  0
   -0.4050  -13.2033   -8.9496 F   0  0  0  0  0  0  0  0  0  0  0  0
    1.2665  -11.8205   -8.7877 F   0  0  0  0  0  0  0  0  0  0  0  0
    1.2584  -13.6602   -7.6302 F   0  0  0  0  0  0  0  0  0  0  0  0
    0.5483  -11.4239   -5.8584 C   0  0  0  0  0  0  0  0  0  0  0  0
    3.1980   -5.4672   -1.1045 C   0  0  0  0  0  0  0  0  0  0  0  0
    3.0947   -2.5178   -0.5836 C   0  0  0  0  0  0  0  0  0  0  0  0
    3.3319   -1.1413   -0.5164 C   0  0  0  0  0  0  0  0  0  0  0  0
    1.0515    1.1372   -1.8396 H   0  0  0  0  0  0  0  0  0  0  0  0
    0.5613   -0.3624   -1.0333 H   0  0  0  0  0  0  0  0  0  0  0  0
    1.4000   -0.4278   -2.5943 H   0  0  0  0  0  0  0  0  0  0  0  0
    5.1145    1.3446    0.3326 H   0  0  0  0  0  0  0  0  0  0  0  0
    6.3324   -1.2404    1.1288 H   0  0  0  0  0  0  0  0  0  0  0  0
    5.0112   -5.2451    1.7322 H   0  0  0  0  0  0  0  0  0  0  0  0
    3.4445   -8.6396    0.0373 H   0  0  0  0  0  0  0  0  0  0  0  0
    1.4415   -9.0245   -1.3050 H   0  0  0  0  0  0  0  0  0  0  0  0
    2.9588   -9.2716   -2.2299 H   0  0  0  0  0  0  0  0  0  0  0  0
    0.2763   -8.3784   -3.4358 H   0  0  0  0  0  0  0  0  0  0  0  0
    2.8141   -9.0945   -4.7262 H   0  0  0  0  0  0  0  0  0  0  0  0
    2.2222   -7.5962   -4.5237 H   0  0  0  0  0  0  0  0  0  0  0  0
    0.2398  -10.7470   -2.6172 H   0  0  0  0  0  0  0  0  0  0  0  0
    1.6919  -11.1081   -3.5123 H   0  0  0  0  0  0  0  0  0  0  0  0
   -1.9485  -10.3451   -3.8085 H   0  0  0  0  0  0  0  0  0  0  0  0
   -3.3116  -11.1630   -5.6961 H   0  0  0  0  0  0  0  0  0  0  0  0
   -2.2382  -12.2237   -7.6513 H   0  0  0  0  0  0  0  0  0  0  0  0
    1.6351  -11.4780   -5.9166 H   0  0  0  0  0  0  0  0  0  0  0  0
    2.7848   -4.8984   -1.9344 H   0  0  0  0  0  0  0  0  0  0  0  0
    2.1893   -2.8918   -1.0417 H   0  0  0  0  0  0  0  0  0  0  0  0
  1  2  1  0  0  0  0
  1 32  1  0  0  0  0
  1 33  1  0  0  0  0
  1 34  1  0  0  0  0
  2  3  2  0  0  0  0
  2 31  1  0  0  0  0
  3  4  1  0  0  0  0
  4  5  1  0  0  0  0
  4 35  1  0  0  0  0
  5  6  1  0  0  0  0
  5 31  2  0  0  0  0
  6  7  2  0  0  0  0
  6 36  1  0  0  0  0
  7  8  1  0  0  0  0
  8  9  1  0  0  0  0
  8 30  2  0  0  0  0
  9 10  1  0  0  0  0
  9 29  2  0  0  0  0
 10 11  2  0  0  0  0
 10 37  1  0  0  0  0
 11 12  1  0  0  0  0
 12 13  2  0  0  0  0
 12 38  1  0  0  0  0
 13 14  1  0  0  0  0
 13 29  1  0  0  0  0
 14 15  1  0  0  0  0
 15 16  1  0  0  0  0
 15 39  1  0  0  0  0
 15 40  1  0  0  0  0
 16 17  1  0  0  0  0
 16 18  1  0  0  0  0
 16 41  1  1  0  0  0
 17 42  1  0  0  0  0
 17 43  1  0  0  0  0
 18 19  1  0  0  0  0
 18 44  1  0  0  0  0
 18 45  1  0  0  0  0
 19 20  1  0  0  0  0
 19 28  2  0  0  0  0
 20 21  2  0  0  0  0
 20 46  1  0  0  0  0
 21 22  1  0  0  0  0
 21 47  1  0  0  0  0
 22 23  2  0  0  0  0
 22 48  1  0  0  0  0
 23 24  1  0  0  0  0
 23 28  1  0  0  0  0
 24 25  1  0  0  0  0
 24 26  1  0  0  0  0
 24 27  1  0  0  0  0
 28 49  1  0  0  0  0
 29 50  1  0  0  0  0
 30 31  1  0  0  0  0
 30 51  1  0  0  0  0
M  END
$$$$
