
 OpenBabel01112422203D

 61 68  0  0  1  0  0  0  0  0999 V2000
    4.5752   -2.9783    0.7103 C   0  0  0  0  0  0  0  0  0  0  0  0
    3.9722   -2.2221    1.8022 N   0  0  0  0  0  0  0  0  0  0  0  0
    2.9564   -1.2512    1.3704 C   0  0  2  0  0  0  0  0  0  0  0  0
    2.1606   -0.5620    2.5384 C   0  0  0  0  0  0  0  0  0  0  0  0
    0.9863    0.2836    1.9494 C   0  0  1  0  0  0  0  0  0  0  0  0
    1.6798    0.8283    0.7572 O   0  0  0  0  0  0  0  0  0  0  0  0
    1.5450   -0.1241   -0.3343 C   0  0  1  0  0  0  0  0  0  0  0  0
    2.7419   -0.0409   -1.3366 C   0  0  0  0  0  0  0  0  0  0  0  0
    1.8551   -1.6335    0.3267 C   0  0  2  0  0  0  0  0  0  0  0  0
    0.8224   -2.2998    1.0437 O   0  0  0  0  0  0  0  0  0  0  0  0
    1.1578   -3.4541    1.8226 C   0  0  0  0  0  0  0  0  0  0  0  0
    0.3620    0.4245   -0.9814 N   0  0  0  0  0  0  0  0  0  0  0  0
    0.2337    1.1687   -2.2163 C   0  0  0  0  0  0  0  0  0  0  0  0
    1.1409    1.7254   -3.1266 C   0  0  0  0  0  0  0  0  0  0  0  0
    0.6759    2.3336   -4.3058 C   0  0  0  0  0  0  0  0  0  0  0  0
   -0.6785    2.4048   -4.5981 C   0  0  0  0  0  0  0  0  0  0  0  0
   -1.5972    2.0799   -3.6195 C   0  0  0  0  0  0  0  0  0  0  0  0
   -1.1121    1.6318   -2.4007 C   0  0  0  0  0  0  0  0  0  0  0  0
   -1.6281    1.7069   -1.1178 C   0  0  0  0  0  0  0  0  0  0  0  0
   -2.2745    2.8540   -0.6841 C   0  0  0  0  0  0  0  0  0  0  0  0
   -3.1600    2.5008    0.3637 C   0  0  0  0  0  0  0  0  0  0  0  0
   -2.3673    1.6175    1.2818 C   0  0  0  0  0  0  0  0  0  0  0  0
   -2.8369    0.2236    1.2862 C   0  0  0  0  0  0  0  0  0  0  0  0
   -4.0341   -0.2655    0.6824 C   0  0  0  0  0  0  0  0  0  0  0  0
   -3.9762   -1.4442   -0.0396 C   0  0  0  0  0  0  0  0  0  0  0  0
   -2.9255   -2.3111    0.1682 C   0  0  0  0  0  0  0  0  0  0  0  0
   -1.8824   -2.0252    1.0739 C   0  0  0  0  0  0  0  0  0  0  0  0
   -1.6561   -0.6948    1.4995 C   0  0  0  0  0  0  0  0  0  0  0  0
   -0.4672    0.1012    1.6982 N   0  0  0  0  0  0  0  0  0  0  0  0
   -1.0085    1.1548    1.0357 C   0  0  0  0  0  0  0  0  0  0  0  0
   -0.6866    1.0600   -0.3640 C   0  0  0  0  0  0  0  0  0  0  0  0
   -3.8562    3.7544    0.5820 C   0  0  0  0  0  0  0  0  0  0  0  0
   -5.0499    4.0233    0.6388 O   0  0  0  0  0  0  0  0  0  0  0  0
   -2.8968    4.7398    0.2421 N   0  0  0  0  0  0  0  0  0  0  0  0
   -1.6792    4.1405   -0.2453 C   0  0  0  0  0  0  0  0  0  0  0  0
    3.8932   -3.7506    0.3467 H   0  0  0  0  0  0  0  0  0  0  0  0
    5.4852   -3.4737    1.0609 H   0  0  0  0  0  0  0  0  0  0  0  0
    4.8673   -2.3396   -0.1299 H   0  0  0  0  0  0  0  0  0  0  0  0
    3.6877   -2.8208    2.5557 H   0  0  0  0  0  0  0  0  0  0  0  0
    3.5996   -0.4790    0.9378 H   0  0  0  0  0  0  0  0  0  0  0  0
    1.8723   -1.1979    3.3726 H   0  0  0  0  0  0  0  0  0  0  0  0
    2.8861    0.1642    2.9492 H   0  0  0  0  0  0  0  0  0  0  0  0
    0.9434    1.1365    2.6457 H   0  0  0  0  0  0  0  0  0  0  0  0
    3.4817   -0.8375   -1.2065 H   0  0  0  0  0  0  0  0  0  0  0  0
    3.2911    0.8981   -1.2524 H   0  0  0  0  0  0  0  0  0  0  0  0
    2.4188   -0.2450   -2.3643 H   0  0  0  0  0  0  0  0  0  0  0  0
    2.1773   -2.3216   -0.4608 H   0  0  0  0  0  0  0  0  0  0  0  0
    1.7930   -3.2181    2.6773 H   0  0  0  0  0  0  0  0  0  0  0  0
    1.6037   -4.2328    1.2058 H   0  0  0  0  0  0  0  0  0  0  0  0
    0.2473   -3.8493    2.2867 H   0  0  0  0  0  0  0  0  0  0  0  0
    2.1983    1.7894   -2.9168 H   0  0  0  0  0  0  0  0  0  0  0  0
    1.3858    2.7850   -4.9852 H   0  0  0  0  0  0  0  0  0  0  0  0
   -1.0269    2.8200   -5.5401 H   0  0  0  0  0  0  0  0  0  0  0  0
   -2.6631    2.2586   -3.7622 H   0  0  0  0  0  0  0  0  0  0  0  0
   -4.8571    0.4196    0.4774 H   0  0  0  0  0  0  0  0  0  0  0  0
   -4.7250   -1.6483   -0.8023 H   0  0  0  0  0  0  0  0  0  0  0  0
   -2.8763   -3.2222   -0.4271 H   0  0  0  0  0  0  0  0  0  0  0  0
   -1.1605   -2.8116    1.1609 H   0  0  0  0  0  0  0  0  0  0  0  0
   -3.2847    5.5126   -0.2834 H   0  0  0  0  0  0  0  0  0  0  0  0
   -1.0539    3.9763    0.6516 H   0  0  0  0  0  0  0  0  0  0  0  0
   -1.1170    4.7131   -0.9698 H   0  0  0  0  0  0  0  0  0  0  0  0
  1  2  1  0  0  0  0
  1 36  1  0  0  0  0
  1 37  1  0  0  0  0
  1 38  1  0  0  0  0
  2  3  1  0  0  0  0
  2 39  1  0  0  0  0
  3  4  1  0  0  0  0
  3  9  1  0  0  0  0
  3 40  1  6  0  0  0
  4  5  1  0  0  0  0
  4 41  1  0  0  0  0
  4 42  1  0  0  0  0
  5  6  1  0  0  0  0
  5 29  1  0  0  0  0
  5 43  1  1  0  0  0
  6  7  1  0  0  0  0
  7  9  1  0  0  0  0
  7 12  1  0  0  0  0
  7  8  1  6  0  0  0
  8 44  1  0  0  0  0
  8 45  1  0  0  0  0
  8 46  1  0  0  0  0
  9 10  1  0  0  0  0
  9 47  1  6  0  0  0
 10 11  1  0  0  0  0
 11 48  1  0  0  0  0
 11 49  1  0  0  0  0
 11 50  1  0  0  0  0
 12 13  1  0  0  0  0
 12 31  1  0  0  0  0
 13 14  1  0  0  0  0
 13 18  2  0  0  0  0
 14 15  2  0  0  0  0
 14 51  1  0  0  0  0
 15 16  1  0  0  0  0
 15 52  1  0  0  0  0
 16 17  2  0  0  0  0
 16 53  1  0  0  0  0
 17 18  1  0  0  0  0
 17 54  1  0  0  0  0
 18 19  1  0  0  0  0
 19 20  1  0  0  0  0
 19 31  2  0  0  0  0
 20 21  2  0  0  0  0
 20 35  1  0  0  0  0
 21 22  1  0  0  0  0
 21 32  1  0  0  0  0
 22 23  1  0  0  0  0
 22 30  2  0  0  0  0
 23 24  1  0  0  0  0
 23 28  2  0  0  0  0
 24 25  2  0  0  0  0
 24 55  1  0  0  0  0
 25 26  1  0  0  0  0
 25 56  1  0  0  0  0
 26 27  2  0  0  0  0
 26 57  1  0  0  0  0
 27 28  1  0  0  0  0
 27 58  1  0  0  0  0
 28 29  1  0  0  0  0
 29 30  1  0  0  0  0
 30 31  1  0  0  0  0
 32 34  1  0  0  0  0
 32 33  2  0  0  0  0
 34 35  1  0  0  0  0
 34 59  1  0  0  0  0
 35 60  1  0  0  0  0
 35 61  1  0  0  0  0
M  END
$$$$
