
 OpenBabel01112422113D

 33 35  0  0  0  0  0  0  0  0999 V2000
    1.0821    0.3504   -0.2738 C   0  0  0  0  0  0  0  0  0  0  0  0
    2.4211    0.0127    0.0853 O   0  0  0  0  0  0  0  0  0  0  0  0
    3.0199   -0.9314   -0.7073 C   0  0  0  0  0  0  0  0  0  0  0  0
    2.6884   -1.1478   -2.0608 C   0  0  0  0  0  0  0  0  0  0  0  0
    3.3389   -2.1291   -2.8120 C   0  0  0  0  0  0  0  0  0  0  0  0
    4.3202   -2.8706   -2.1837 C   0  0  0  0  0  0  0  0  0  0  0  0
    4.6671   -2.6527   -0.8520 C   0  0  0  0  0  0  0  0  0  0  0  0
    4.0375   -1.6779   -0.0960 C   0  0  0  0  0  0  0  0  0  0  0  0
    5.7289   -3.5905   -0.4537 C   0  0  0  0  0  0  0  0  0  0  0  0
    6.2575   -3.6668    0.6354 O   0  0  0  0  0  0  0  0  0  0  0  0
    6.0018   -4.4149   -1.6611 C   0  0  0  0  0  0  0  0  0  0  0  0
    6.9036   -5.4067   -1.6928 C   0  0  0  0  0  0  0  0  0  0  0  0
    7.1737   -6.2373   -2.8697 C   0  0  0  0  0  0  0  0  0  0  0  0
    8.1504   -5.8536   -3.7951 C   0  0  0  0  0  0  0  0  0  0  0  0
    8.3843   -6.6370   -4.9285 C   0  0  0  0  0  0  0  0  0  0  0  0
    9.7091   -6.0791   -6.1668 Br  0  0  0  0  0  0  0  0  0  0  0  0
    7.6535   -7.8089   -5.1460 C   0  0  0  0  0  0  0  0  0  0  0  0
    7.8833   -8.5887   -6.2493 O   0  0  0  0  0  0  0  0  0  0  0  0
    6.6776   -8.1902   -4.2227 C   0  0  0  0  0  0  0  0  0  0  0  0
    5.6459   -9.7642   -4.4654 Br  0  0  0  0  0  0  0  0  0  0  0  0
    6.4372   -7.4081   -3.0880 C   0  0  0  0  0  0  0  0  0  0  0  0
    5.1179   -3.9526   -2.7630 C   0  0  0  0  0  0  0  0  0  0  0  0
    5.0398   -4.3506   -3.9054 O   0  0  0  0  0  0  0  0  0  0  0  0
    0.6871    1.0312    0.4857 H   0  0  0  0  0  0  0  0  0  0  0  0
    0.4480   -0.5431   -0.2909 H   0  0  0  0  0  0  0  0  0  0  0  0
    1.0418    0.8777   -1.2322 H   0  0  0  0  0  0  0  0  0  0  0  0
    1.9312   -0.5507   -2.5605 H   0  0  0  0  0  0  0  0  0  0  0  0
    3.0845   -2.3027   -3.8534 H   0  0  0  0  0  0  0  0  0  0  0  0
    4.3118   -1.5080    0.9408 H   0  0  0  0  0  0  0  0  0  0  0  0
    7.4837   -5.6474   -0.8040 H   0  0  0  0  0  0  0  0  0  0  0  0
    8.7203   -4.9408   -3.6383 H   0  0  0  0  0  0  0  0  0  0  0  0
    8.5800   -8.1609   -6.7789 H   0  0  0  0  0  0  0  0  0  0  0  0
    5.6683   -7.7077   -2.3793 H   0  0  0  0  0  0  0  0  0  0  0  0
  1  2  1  0  0  0  0
  1 24  1  0  0  0  0
  1 25  1  0  0  0  0
  1 26  1  0  0  0  0
  2  3  1  0  0  0  0
  3  4  1  0  0  0  0
  3  8  2  0  0  0  0
  4  5  2  0  0  0  0
  4 27  1  0  0  0  0
  5  6  1  0  0  0  0
  5 28  1  0  0  0  0
  6  7  2  0  0  0  0
  6 22  1  0  0  0  0
  7  8  1  0  0  0  0
  7  9  1  0  0  0  0
  8 29  1  0  0  0  0
  9 10  2  0  0  0  0
  9 11  1  0  0  0  0
 11 12  2  0  0  0  0
 11 22  1  0  0  0  0
 12 13  1  0  0  0  0
 12 30  1  0  0  0  0
 13 14  1  0  0  0  0
 13 21  2  0  0  0  0
 14 15  2  0  0  0  0
 14 31  1  0  0  0  0
 15 16  1  0  0  0  0
 15 17  1  0  0  0  0
 17 18  1  0  0  0  0
 17 19  2  0  0  0  0
 18 32  1  0  0  0  0
 19 20  1  0  0  0  0
 19 21  1  0  0  0  0
 21 33  1  0  0  0  0
 22 23  2  0  0  0  0
M  END
$$$$
