
 OpenBabel01112422313D

 62 67  0  0  1  0  0  0  0  0999 V2000
    2.8363   -0.0251    2.8404 C   0  0  0  0  0  0  0  0  0  0  0  0
    2.3548   -1.1334    2.0151 N   0  0  0  0  0  0  0  0  0  0  0  0
    0.8882   -1.1125    1.9720 C   0  0  0  0  0  0  0  0  0  0  0  0
    2.8990   -1.0656    0.6445 C   0  0  0  0  0  0  0  0  0  0  0  0
    4.4393   -1.2440    0.5896 C   0  0  3  0  0  0  0  0  0  0  0  0
    4.9144   -2.5662    1.2187 C   0  0  0  0  0  0  0  0  0  0  0  0
    4.3412   -3.7699    0.4759 C   0  0  0  0  0  0  0  0  0  0  0  0
    4.4242   -3.6211   -0.9710 N   0  0  0  0  0  0  0  0  0  0  0  0
    4.6883   -2.4322   -1.6150 C   0  0  0  0  0  0  0  0  0  0  0  0
    4.6606   -2.6888   -2.9717 C   0  0  0  0  0  0  0  0  0  0  0  0
    4.8998   -1.7195   -3.9773 C   0  0  0  0  0  0  0  0  0  0  0  0
    6.0534   -1.3813   -4.5698 C   0  0  0  0  0  0  0  0  0  0  0  0
    7.3488   -1.9138   -4.3769 C   0  0  0  0  0  0  0  0  0  0  0  0
    8.2340   -1.4748   -3.4166 C   0  0  0  0  0  0  0  0  0  0  0  0
    9.3859   -2.2009   -3.5548 N   0  0  0  0  0  0  0  0  0  0  0  0
   10.5678   -2.0193   -2.7396 C   0  0  0  0  0  0  0  0  0  0  0  0
    9.2660   -3.1087   -4.5854 C   0  0  0  0  0  0  0  0  0  0  0  0
   10.1740   -4.0475   -5.0973 C   0  0  0  0  0  0  0  0  0  0  0  0
    9.7663   -4.8392   -6.1748 C   0  0  0  0  0  0  0  0  0  0  0  0
    8.4943   -4.7038   -6.7215 C   0  0  0  0  0  0  0  0  0  0  0  0
    7.5936   -3.7665   -6.2052 C   0  0  0  0  0  0  0  0  0  0  0  0
    7.9809   -2.9504   -5.1209 C   0  0  0  0  0  0  0  0  0  0  0  0
    5.7691   -0.2531   -5.4825 C   0  0  0  0  0  0  0  0  0  0  0  0
    6.5761    0.3815   -6.1371 O   0  0  0  0  0  0  0  0  0  0  0  0
    4.4410   -0.0227   -5.4288 N   0  0  0  0  0  0  0  0  0  0  0  0
    3.8494   -0.8375   -4.5303 C   0  0  0  0  0  0  0  0  0  0  0  0
    2.6702   -0.8223   -4.2251 O   0  0  0  0  0  0  0  0  0  0  0  0
    4.3363   -4.0632   -3.1545 C   0  0  0  0  0  0  0  0  0  0  0  0
    4.1544   -4.8899   -4.2818 C   0  0  0  0  0  0  0  0  0  0  0  0
    3.7916   -6.2300   -4.1035 C   0  0  0  0  0  0  0  0  0  0  0  0
    3.6086   -6.7522   -2.8282 C   0  0  0  0  0  0  0  0  0  0  0  0
    3.7933   -5.9589   -1.6940 C   0  0  0  0  0  0  0  0  0  0  0  0
    4.1665   -4.6193   -1.8827 C   0  0  0  0  0  0  0  0  0  0  0  0
    4.9526   -1.1718   -0.8576 C   0  0  0  0  0  0  0  0  0  0  0  0
    2.4084   -0.0789    3.8471 H   0  0  0  0  0  0  0  0  0  0  0  0
    2.5859    0.9487    2.4053 H   0  0  0  0  0  0  0  0  0  0  0  0
    3.9203   -0.0754    2.9800 H   0  0  0  0  0  0  0  0  0  0  0  0
    0.4717   -1.1441    2.9854 H   0  0  0  0  0  0  0  0  0  0  0  0
    0.5030   -1.9956    1.4501 H   0  0  0  0  0  0  0  0  0  0  0  0
    0.5028   -0.2169    1.4711 H   0  0  0  0  0  0  0  0  0  0  0  0
    2.6255   -0.1120    0.1721 H   0  0  0  0  0  0  0  0  0  0  0  0
    2.4211   -1.8455    0.0404 H   0  0  0  0  0  0  0  0  0  0  0  0
    4.9109   -0.4127    1.1252 H   0  0  0  0  0  0  0  0  0  0  0  0
    4.6520   -2.6225    2.2808 H   0  0  0  0  0  0  0  0  0  0  0  0
    6.0114   -2.6047    1.1713 H   0  0  0  0  0  0  0  0  0  0  0  0
    3.2820   -3.9131    0.7175 H   0  0  0  0  0  0  0  0  0  0  0  0
    4.8861   -4.6780    0.7542 H   0  0  0  0  0  0  0  0  0  0  0  0
    8.1403   -0.7030   -2.6641 H   0  0  0  0  0  0  0  0  0  0  0  0
   10.3865   -1.2290   -2.0050 H   0  0  0  0  0  0  0  0  0  0  0  0
   11.3959   -1.7321   -3.3917 H   0  0  0  0  0  0  0  0  0  0  0  0
   10.7810   -2.9588   -2.2261 H   0  0  0  0  0  0  0  0  0  0  0  0
   11.1684   -4.1615   -4.6792 H   0  0  0  0  0  0  0  0  0  0  0  0
   10.4558   -5.5685   -6.5923 H   0  0  0  0  0  0  0  0  0  0  0  0
    8.1966   -5.3300   -7.5590 H   0  0  0  0  0  0  0  0  0  0  0  0
    6.6051   -3.6704   -6.6425 H   0  0  0  0  0  0  0  0  0  0  0  0
    3.9716    0.7132   -5.9276 H   0  0  0  0  0  0  0  0  0  0  0  0
    4.2845   -4.4926   -5.2828 H   0  0  0  0  0  0  0  0  0  0  0  0
    3.6481   -6.8645   -4.9732 H   0  0  0  0  0  0  0  0  0  0  0  0
    3.3155   -7.7921   -2.7095 H   0  0  0  0  0  0  0  0  0  0  0  0
    3.6447   -6.3718   -0.7016 H   0  0  0  0  0  0  0  0  0  0  0  0
    4.5092   -0.3109   -1.3712 H   0  0  0  0  0  0  0  0  0  0  0  0
    6.0379   -1.0055   -0.8420 H   0  0  0  0  0  0  0  0  0  0  0  0
  1  2  1  0  0  0  0
  1 35  1  0  0  0  0
  1 36  1  0  0  0  0
  1 37  1  0  0  0  0
  2  3  1  0  0  0  0
  2  4  1  0  0  0  0
  3 38  1  0  0  0  0
  3 39  1  0  0  0  0
  3 40  1  0  0  0  0
  4  5  1  0  0  0  0
  4 41  1  0  0  0  0
  4 42  1  0  0  0  0
  5  6  1  0  0  0  0
  5 34  1  0  0  0  0
  5 43  1  0  0  0  0
  6  7  1  0  0  0  0
  6 44  1  0  0  0  0
  6 45  1  0  0  0  0
  7  8  1  0  0  0  0
  7 46  1  0  0  0  0
  7 47  1  0  0  0  0
  8  9  1  0  0  0  0
  8 33  1  0  0  0  0
  9 10  2  0  0  0  0
  9 34  1  0  0  0  0
 10 11  1  0  0  0  0
 10 28  1  0  0  0  0
 11 12  2  0  0  0  0
 11 26  1  0  0  0  0
 12 13  1  0  0  0  0
 12 23  1  0  0  0  0
 13 14  2  0  0  0  0
 13 22  1  0  0  0  0
 14 15  1  0  0  0  0
 14 48  1  0  0  0  0
 15 16  1  0  0  0  0
 15 17  1  0  0  0  0
 16 49  1  0  0  0  0
 16 50  1  0  0  0  0
 16 51  1  0  0  0  0
 17 18  1  0  0  0  0
 17 22  2  0  0  0  0
 18 19  2  0  0  0  0
 18 52  1  0  0  0  0
 19 20  1  0  0  0  0
 19 53  1  0  0  0  0
 20 21  2  0  0  0  0
 20 54  1  0  0  0  0
 21 22  1  0  0  0  0
 21 55  1  0  0  0  0
 23 24  2  0  0  0  0
 23 25  1  0  0  0  0
 25 26  1  0  0  0  0
 25 56  1  0  0  0  0
 26 27  2  0  0  0  0
 28 29  1  0  0  0  0
 28 33  2  0  0  0  0
 29 30  2  0  0  0  0
 29 57  1  0  0  0  0
 30 31  1  0  0  0  0
 30 58  1  0  0  0  0
 31 32  2  0  0  0  0
 31 59  1  0  0  0  0
 32 33  1  0  0  0  0
 32 60  1  0  0  0  0
 34 61  1  0  0  0  0
 34 62  1  0  0  0  0
M  END
$$$$
