
 OpenBabel01112422593D

 72 75  0  0  1  0  0  0  0  0999 V2000
   12.1418   -7.7374   -2.0936 C   0  0  0  0  0  0  0  0  0  0  0  0
   11.4541   -6.3886   -2.2227 C   0  0  0  0  0  0  0  0  0  0  0  0
   10.1867   -6.4220   -3.0894 C   0  0  3  0  0  0  0  0  0  0  0  0
    9.0995   -7.3092   -2.4885 C   0  0  0  0  0  0  0  0  0  0  0  0
    9.6405   -5.0865   -3.1598 O   0  0  0  0  0  0  0  0  0  0  0  0
   10.2043   -4.2467   -4.0572 C   0  0  0  0  0  0  0  0  0  0  0  0
   11.0889   -4.5307   -4.8567 O   0  0  0  0  0  0  0  0  0  0  0  0
    9.6484   -2.8758   -3.9240 C   0  0  0  0  0  0  0  0  0  0  0  0
    8.5528   -2.6108   -3.0970 C   0  0  0  0  0  0  0  0  0  0  0  0
    8.0879   -1.3056   -2.9588 C   0  0  0  0  0  0  0  0  0  0  0  0
    8.7247   -0.2617   -3.6251 C   0  0  0  0  0  0  0  0  0  0  0  0
    9.8368   -0.4996   -4.4312 C   0  0  0  0  0  0  0  0  0  0  0  0
   10.5707    0.5333   -5.0580 N   0  0  0  0  0  0  0  0  0  0  0  0
   10.5610    1.8755   -4.6939 C   0  0  0  0  0  0  0  0  0  0  0  0
    9.8281    2.3316   -3.8139 O   0  0  0  0  0  0  0  0  0  0  0  0
   11.4776    2.8558   -5.4892 C   0  0  0  0  0  0  0  0  0  0  0  0
   12.6800    2.0810   -6.1558 C   0  0  0  0  0  0  0  0  0  0  0  0
   13.6129    2.7112   -7.1191 N   0  0  0  0  0  0  0  0  0  0  0  0
   14.3898    3.8229   -6.5856 C   0  0  0  0  0  0  0  0  0  0  0  0
   14.5430    1.6985   -7.6473 C   0  0  0  0  0  0  0  0  0  0  0  0
   11.9673    3.9085   -4.4226 C   0  0  0  0  0  0  0  0  0  0  0  0
   11.1223    5.1912   -4.2865 C   0  0  0  0  0  0  0  0  0  0  0  0
   10.7447    5.6152   -5.6323 N   0  0  0  0  0  0  0  0  0  0  0  0
   10.4871    6.9668   -5.8640 C   0  0  0  0  0  0  0  0  0  0  0  0
   10.2748    7.8052   -4.8105 N   0  0  0  0  0  0  0  0  0  0  0  0
   10.0401    9.1143   -5.0399 C   0  0  0  0  0  0  0  0  0  0  0  0
    9.9925    9.7575   -6.2145 N   0  0  0  0  0  0  0  0  0  0  0  0
   10.2353    8.9207   -7.2311 C   0  0  0  0  0  0  0  0  0  0  0  0
   10.2618    9.3144   -8.5389 N   0  0  0  0  0  0  0  0  0  0  0  0
   10.5582    8.2491   -9.3377 C   0  0  0  0  0  0  0  0  0  0  0  0
   10.7370    7.1402   -8.5292 C   0  0  0  0  0  0  0  0  0  0  0  0
   11.1138    5.8006   -9.0407 C   0  0  0  0  0  0  0  0  0  0  0  0
   10.4954    7.5557   -7.1647 C   0  0  0  0  0  0  0  0  0  0  0  0
    9.7805    4.6796   -6.1974 C   0  0  0  0  0  0  0  0  0  0  0  0
   10.5819    3.4448   -6.6123 C   0  0  0  0  0  0  0  0  0  0  0  0
   10.2739   -1.8221   -4.6139 C   0  0  0  0  0  0  0  0  0  0  0  0
   13.0752   -7.6299   -1.5322 H   0  0  0  0  0  0  0  0  0  0  0  0
   12.3830   -8.1490   -3.0785 H   0  0  0  0  0  0  0  0  0  0  0  0
   11.5173   -8.4583   -1.5584 H   0  0  0  0  0  0  0  0  0  0  0  0
   12.1673   -5.6720   -2.6476 H   0  0  0  0  0  0  0  0  0  0  0  0
   11.2112   -5.9993   -1.2260 H   0  0  0  0  0  0  0  0  0  0  0  0
   10.4142   -6.7877   -4.0990 H   0  0  0  0  0  0  0  0  0  0  0  0
    8.8373   -6.9787   -1.4772 H   0  0  0  0  0  0  0  0  0  0  0  0
    9.4063   -8.3580   -2.4458 H   0  0  0  0  0  0  0  0  0  0  0  0
    8.1833   -7.2484   -3.0859 H   0  0  0  0  0  0  0  0  0  0  0  0
    8.0527   -3.4059   -2.5465 H   0  0  0  0  0  0  0  0  0  0  0  0
    7.2358   -1.0912   -2.3186 H   0  0  0  0  0  0  0  0  0  0  0  0
    8.3184    0.7391   -3.4932 H   0  0  0  0  0  0  0  0  0  0  0  0
   11.2875    0.1955   -5.6825 H   0  0  0  0  0  0  0  0  0  0  0  0
   12.2170    1.3082   -6.7814 H   0  0  0  0  0  0  0  0  0  0  0  0
   13.2430    1.5597   -5.3705 H   0  0  0  0  0  0  0  0  0  0  0  0
   13.7499    4.6831   -6.3801 H   0  0  0  0  0  0  0  0  0  0  0  0
   15.1103    4.1863   -7.3274 H   0  0  0  0  0  0  0  0  0  0  0  0
   14.9474    3.5373   -5.6862 H   0  0  0  0  0  0  0  0  0  0  0  0
   14.0008    0.8814   -8.1364 H   0  0  0  0  0  0  0  0  0  0  0  0
   15.1720    1.2701   -6.8576 H   0  0  0  0  0  0  0  0  0  0  0  0
   15.1998    2.1326   -8.4101 H   0  0  0  0  0  0  0  0  0  0  0  0
   12.9884    4.2259   -4.6158 H   0  0  0  0  0  0  0  0  0  0  0  0
   12.0397    3.4399   -3.4311 H   0  0  0  0  0  0  0  0  0  0  0  0
   11.7200    5.9468   -3.7615 H   0  0  0  0  0  0  0  0  0  0  0  0
   10.2339    5.0042   -3.6679 H   0  0  0  0  0  0  0  0  0  0  0  0
    9.8643    9.7290   -4.1621 H   0  0  0  0  0  0  0  0  0  0  0  0
   10.0911   10.2606   -8.8451 H   0  0  0  0  0  0  0  0  0  0  0  0
   10.6310    8.3590  -10.4119 H   0  0  0  0  0  0  0  0  0  0  0  0
   11.2118    5.7997  -10.1306 H   0  0  0  0  0  0  0  0  0  0  0  0
   10.3332    5.0735   -8.8208 H   0  0  0  0  0  0  0  0  0  0  0  0
   12.0684    5.4767   -8.6159 H   0  0  0  0  0  0  0  0  0  0  0  0
    9.2277    5.0886   -7.0482 H   0  0  0  0  0  0  0  0  0  0  0  0
    9.0096    4.4147   -5.4615 H   0  0  0  0  0  0  0  0  0  0  0  0
   11.2288    3.7227   -7.4452 H   0  0  0  0  0  0  0  0  0  0  0  0
    9.8893    2.6915   -7.0066 H   0  0  0  0  0  0  0  0  0  0  0  0
   11.1281   -2.0394   -5.2456 H   0  0  0  0  0  0  0  0  0  0  0  0
  1  2  1  0  0  0  0
  1 37  1  0  0  0  0
  1 38  1  0  0  0  0
  1 39  1  0  0  0  0
  2  3  1  0  0  0  0
  2 40  1  0  0  0  0
  2 41  1  0  0  0  0
  3  4  1  0  0  0  0
  3  5  1  0  0  0  0
  3 42  1  0  0  0  0
  4 43  1  0  0  0  0
  4 44  1  0  0  0  0
  4 45  1  0  0  0  0
  5  6  1  0  0  0  0
  6  7  2  0  0  0  0
  6  8  1  0  0  0  0
  8  9  1  0  0  0  0
  8 36  2  0  0  0  0
  9 10  2  0  0  0  0
  9 46  1  0  0  0  0
 10 11  1  0  0  0  0
 10 47  1  0  0  0  0
 11 12  2  0  0  0  0
 11 48  1  0  0  0  0
 12 13  1  0  0  0  0
 12 36  1  0  0  0  0
 13 14  1  0  0  0  0
 13 49  1  0  0  0  0
 14 15  2  0  0  0  0
 14 16  1  0  0  0  0
 16 17  1  0  0  0  0
 16 21  1  0  0  0  0
 16 35  1  0  0  0  0
 17 18  1  0  0  0  0
 17 50  1  0  0  0  0
 17 51  1  0  0  0  0
 18 19  1  0  0  0  0
 18 20  1  0  0  0  0
 19 52  1  0  0  0  0
 19 53  1  0  0  0  0
 19 54  1  0  0  0  0
 20 55  1  0  0  0  0
 20 56  1  0  0  0  0
 20 57  1  0  0  0  0
 21 22  1  0  0  0  0
 21 58  1  0  0  0  0
 21 59  1  0  0  0  0
 22 23  1  0  0  0  0
 22 60  1  0  0  0  0
 22 61  1  0  0  0  0
 23 24  1  0  0  0  0
 23 34  1  0  0  0  0
 24 25  1  0  0  0  0
 24 33  2  0  0  0  0
 25 26  2  0  0  0  0
 26 27  1  0  0  0  0
 26 62  1  0  0  0  0
 27 28  2  0  0  0  0
 28 29  1  0  0  0  0
 28 33  1  0  0  0  0
 29 30  1  0  0  0  0
 29 63  1  0  0  0  0
 30 31  2  0  0  0  0
 30 64  1  0  0  0  0
 31 32  1  0  0  0  0
 31 33  1  0  0  0  0
 32 65  1  0  0  0  0
 32 66  1  0  0  0  0
 32 67  1  0  0  0  0
 34 35  1  0  0  0  0
 34 68  1  0  0  0  0
 34 69  1  0  0  0  0
 35 70  1  0  0  0  0
 35 71  1  0  0  0  0
 36 72  1  0  0  0  0
M  END
$$$$
