
 OpenBabel01112422193D

 74 82  0  0  1  0  0  0  0  0999 V2000
   -0.6388    1.7886    0.4502 C   0  0  0  0  0  0  0  0  0  0  0  0
    0.1043    0.6070    0.7339 O   0  0  0  0  0  0  0  0  0  0  0  0
    0.9374    0.1359   -0.3360 C   0  0  1  0  0  0  0  0  0  0  0  0
    1.9189   -0.9254    0.2600 C   0  0  1  0  0  0  0  0  0  0  0  0
    3.0859   -0.4144    0.9987 N   0  0  0  0  0  0  0  0  0  0  0  0
    2.8540    0.4465    2.1460 C   0  0  0  0  0  0  0  0  0  0  0  0
    4.3595   -0.3238    0.4111 C   0  0  0  0  0  0  0  0  0  0  0  0
    5.1656    0.5577    0.7099 O   0  0  0  0  0  0  0  0  0  0  0  0
    4.8160   -1.3652   -0.5593 C   0  0  0  0  0  0  0  0  0  0  0  0
    5.5929   -0.9860   -1.6629 C   0  0  0  0  0  0  0  0  0  0  0  0
    6.1464   -1.9619   -2.5007 C   0  0  0  0  0  0  0  0  0  0  0  0
    5.9247   -3.3137   -2.2419 C   0  0  0  0  0  0  0  0  0  0  0  0
    5.1434   -3.6976   -1.1525 C   0  0  0  0  0  0  0  0  0  0  0  0
    4.6007   -2.7273   -0.3059 C   0  0  0  0  0  0  0  0  0  0  0  0
    1.1440   -2.0362    0.9908 C   0  0  0  0  0  0  0  0  0  0  0  0
   -0.1490   -2.3636    0.2402 C   0  0  2  0  0  0  0  0  0  0  0  0
    0.0927   -2.0893   -1.1714 O   0  0  0  0  0  0  0  0  0  0  0  0
    0.2014   -0.6700   -1.5047 C   0  0  2  0  0  0  0  0  0  0  0  0
    1.1335   -0.5535   -2.7387 C   0  0  0  0  0  0  0  0  0  0  0  0
   -1.1356   -0.2611   -1.8581 N   0  0  0  0  0  0  0  0  0  0  0  0
   -1.6885    0.5598   -2.8613 C   0  0  0  0  0  0  0  0  0  0  0  0
   -1.1546    1.0961   -4.0399 C   0  0  0  0  0  0  0  0  0  0  0  0
   -1.7714    2.2121   -4.6096 C   0  0  0  0  0  0  0  0  0  0  0  0
   -2.9293    2.7467   -4.0652 C   0  0  0  0  0  0  0  0  0  0  0  0
   -3.6420    2.0264   -3.1102 C   0  0  0  0  0  0  0  0  0  0  0  0
   -3.0743    0.8523   -2.5731 C   0  0  0  0  0  0  0  0  0  0  0  0
   -3.4909   -0.1582   -1.7160 C   0  0  0  0  0  0  0  0  0  0  0  0
   -4.7782   -0.6759   -1.5019 C   0  0  0  0  0  0  0  0  0  0  0  0
   -4.9630   -1.1093   -0.1465 C   0  0  0  0  0  0  0  0  0  0  0  0
   -3.6991   -1.2919    0.4697 C   0  0  0  0  0  0  0  0  0  0  0  0
   -3.2784   -0.9138    1.7461 C   0  0  0  0  0  0  0  0  0  0  0  0
   -3.5901    0.0138    2.7585 C   0  0  0  0  0  0  0  0  0  0  0  0
   -2.9445   -0.1118    3.9923 C   0  0  0  0  0  0  0  0  0  0  0  0
   -2.2620   -1.2922    4.2638 C   0  0  0  0  0  0  0  0  0  0  0  0
   -1.8790   -2.1566    3.2258 C   0  0  0  0  0  0  0  0  0  0  0  0
   -2.0671   -1.6730    1.9168 C   0  0  0  0  0  0  0  0  0  0  0  0
   -1.3987   -1.7879    0.6929 N   0  0  0  0  0  0  0  0  0  0  0  0
   -2.4235   -1.3832   -0.0934 C   0  0  0  0  0  0  0  0  0  0  0  0
   -2.2896   -0.6813   -1.2757 C   0  0  0  0  0  0  0  0  0  0  0  0
   -5.9440   -2.1971   -0.1523 C   0  0  0  0  0  0  0  0  0  0  0  0
   -6.4137   -2.9035    0.7296 O   0  0  0  0  0  0  0  0  0  0  0  0
   -6.1635   -2.4623   -1.5005 N   0  0  0  0  0  0  0  0  0  0  0  0
   -5.3425   -1.7266   -2.4122 C   0  0  2  0  0  0  0  0  0  0  0  0
   -4.3507   -2.6479   -2.8351 O   0  0  0  0  0  0  0  0  0  0  0  0
   -0.4971    2.1560   -0.5702 H   0  0  0  0  0  0  0  0  0  0  0  0
   -0.3379    2.5758    1.1496 H   0  0  0  0  0  0  0  0  0  0  0  0
   -1.7036    1.5977    0.6191 H   0  0  0  0  0  0  0  0  0  0  0  0
    1.5021    0.9824   -0.7429 H   0  0  0  0  0  0  0  0  0  0  0  0
    2.3622   -1.4154   -0.6052 H   0  0  0  0  0  0  0  0  0  0  0  0
    2.7862    1.4873    1.8158 H   0  0  0  0  0  0  0  0  0  0  0  0
    3.7005    0.3486    2.8349 H   0  0  0  0  0  0  0  0  0  0  0  0
    1.9453    0.1529    2.6758 H   0  0  0  0  0  0  0  0  0  0  0  0
    5.7935    0.0653   -1.8548 H   0  0  0  0  0  0  0  0  0  0  0  0
    6.7775   -1.6658   -3.3362 H   0  0  0  0  0  0  0  0  0  0  0  0
    6.3882   -4.0699   -2.8712 H   0  0  0  0  0  0  0  0  0  0  0  0
    4.9853   -4.7525   -0.9443 H   0  0  0  0  0  0  0  0  0  0  0  0
    4.0399   -3.0424    0.5681 H   0  0  0  0  0  0  0  0  0  0  0  0
    0.9887   -1.8438    2.0536 H   0  0  0  0  0  0  0  0  0  0  0  0
    1.7772   -2.9321    0.9343 H   0  0  0  0  0  0  0  0  0  0  0  0
   -0.3235   -3.4425    0.3108 H   0  0  0  0  0  0  0  0  0  0  0  0
    1.1898    0.5017   -3.0669 H   0  0  0  0  0  0  0  0  0  0  0  0
    0.7859   -1.1961   -3.5681 H   0  0  0  0  0  0  0  0  0  0  0  0
    2.1623   -0.8276   -2.5176 H   0  0  0  0  0  0  0  0  0  0  0  0
   -0.2782    0.6804   -4.5185 H   0  0  0  0  0  0  0  0  0  0  0  0
   -1.3081    2.6847   -5.4714 H   0  0  0  0  0  0  0  0  0  0  0  0
   -3.3024    3.7026   -4.4192 H   0  0  0  0  0  0  0  0  0  0  0  0
   -4.5768    2.4181   -2.7126 H   0  0  0  0  0  0  0  0  0  0  0  0
   -4.2444    0.8585    2.5608 H   0  0  0  0  0  0  0  0  0  0  0  0
   -3.1045    0.6254    4.7740 H   0  0  0  0  0  0  0  0  0  0  0  0
   -2.0980   -1.5811    5.2995 H   0  0  0  0  0  0  0  0  0  0  0  0
   -1.8923   -3.2308    3.4282 H   0  0  0  0  0  0  0  0  0  0  0  0
   -6.5625   -3.3501   -1.7697 H   0  0  0  0  0  0  0  0  0  0  0  0
   -5.9112   -1.3424   -3.2577 H   0  0  0  0  0  0  0  0  0  0  0  0
   -3.8007   -2.8752   -2.0199 H   0  0  0  0  0  0  0  0  0  0  0  0
  1  2  1  0  0  0  0
  1 45  1  0  0  0  0
  1 46  1  0  0  0  0
  1 47  1  0  0  0  0
  3  4  1  0  0  0  0
  3 18  1  0  0  0  0
  3  2  1  0  0  0  0
  3 48  1  6  0  0  0
  4 15  1  0  0  0  0
  4  5  1  0  0  0  0
  4 49  1  6  0  0  0
  5  6  1  0  0  0  0
  5  7  1  0  0  0  0
  6 50  1  0  0  0  0
  6 51  1  0  0  0  0
  6 52  1  0  0  0  0
  7  8  2  0  0  0  0
  7  9  1  0  0  0  0
  9 10  1  0  0  0  0
  9 14  2  0  0  0  0
 10 11  2  0  0  0  0
 10 53  1  0  0  0  0
 11 12  1  0  0  0  0
 11 54  1  0  0  0  0
 12 13  2  0  0  0  0
 12 55  1  0  0  0  0
 13 14  1  0  0  0  0
 13 56  1  0  0  0  0
 14 57  1  0  0  0  0
 15 16  1  0  0  0  0
 15 58  1  0  0  0  0
 15 59  1  0  0  0  0
 16 17  1  0  0  0  0
 16 37  1  0  0  0  0
 16 60  1  1  0  0  0
 17 18  1  0  0  0  0
 18 20  1  0  0  0  0
 18 19  1  6  0  0  0
 19 61  1  0  0  0  0
 19 62  1  0  0  0  0
 19 63  1  0  0  0  0
 20 21  1  0  0  0  0
 20 39  1  0  0  0  0
 21 22  1  0  0  0  0
 21 26  2  0  0  0  0
 22 23  2  0  0  0  0
 22 64  1  0  0  0  0
 23 24  1  0  0  0  0
 23 65  1  0  0  0  0
 24 25  2  0  0  0  0
 24 66  1  0  0  0  0
 25 26  1  0  0  0  0
 25 67  1  0  0  0  0
 26 27  1  0  0  0  0
 27 28  1  0  0  0  0
 27 39  2  0  0  0  0
 28 29  2  0  0  0  0
 28 43  1  0  0  0  0
 29 30  1  0  0  0  0
 29 40  1  0  0  0  0
 30 31  1  0  0  0  0
 30 38  2  0  0  0  0
 31 32  1  0  0  0  0
 31 36  2  0  0  0  0
 32 33  2  0  0  0  0
 32 68  1  0  0  0  0
 33 34  1  0  0  0  0
 33 69  1  0  0  0  0
 34 35  2  0  0  0  0
 34 70  1  0  0  0  0
 35 36  1  0  0  0  0
 35 71  1  0  0  0  0
 36 37  1  0  0  0  0
 37 38  1  0  0  0  0
 38 39  1  0  0  0  0
 40 42  1  0  0  0  0
 40 41  2  0  0  0  0
 42 43  1  0  0  0  0
 42 72  1  0  0  0  0
 43 44  1  0  0  0  0
 43 73  1  6  0  0  0
 44 74  1  0  0  0  0
M  END
$$$$
