
 OpenBabel01112422423D

 26 28  0  0  0  0  0  0  0  0999 V2000
    0.9917    0.1084   -0.0738 O   0  0  0  0  0  0  0  0  0  0  0  0
    2.3613    0.0819   -0.0654 C   0  0  0  0  0  0  0  0  0  0  0  0
    3.0341   -1.1443   -0.0605 C   0  0  0  0  0  0  0  0  0  0  0  0
    4.4366   -1.1055   -0.0510 C   0  0  0  0  0  0  0  0  0  0  0  0
    5.3554   -2.1314   -0.0451 N   0  0  0  0  0  0  0  0  0  0  0  0
    6.6437   -1.6439   -0.0345 C   0  0  0  0  0  0  0  0  0  0  0  0
    7.8718   -2.3254   -0.0239 C   0  0  0  0  0  0  0  0  0  0  0  0
    9.0253   -1.5405   -0.0130 C   0  0  0  0  0  0  0  0  0  0  0  0
   10.2744   -2.1041   -0.0009 O   0  0  0  0  0  0  0  0  0  0  0  0
    8.9552   -0.1512   -0.0134 C   0  0  0  0  0  0  0  0  0  0  0  0
   10.1050    0.5891   -0.0017 O   0  0  0  0  0  0  0  0  0  0  0  0
    7.7345    0.5139   -0.0248 C   0  0  0  0  0  0  0  0  0  0  0  0
    6.5492   -0.2501   -0.0352 C   0  0  0  0  0  0  0  0  0  0  0  0
    5.1581    0.0876   -0.0467 C   0  0  0  0  0  0  0  0  0  0  0  0
    4.4534    1.3112   -0.0526 C   0  0  0  0  0  0  0  0  0  0  0  0
    3.0566    1.2896   -0.0623 C   0  0  0  0  0  0  0  0  0  0  0  0
    2.3541    2.4644   -0.0685 O   0  0  0  0  0  0  0  0  0  0  0  0
    0.6561   -0.7996   -0.0669 H   0  0  0  0  0  0  0  0  0  0  0  0
    2.5017   -2.0876   -0.0637 H   0  0  0  0  0  0  0  0  0  0  0  0
    5.1150   -3.1113   -0.0468 H   0  0  0  0  0  0  0  0  0  0  0  0
    7.9114   -3.4085   -0.0240 H   0  0  0  0  0  0  0  0  0  0  0  0
   10.1713   -3.0709   -0.0006 H   0  0  0  0  0  0  0  0  0  0  0  0
   10.8229   -0.0747    0.0057 H   0  0  0  0  0  0  0  0  0  0  0  0
    7.7030    1.5979   -0.0246 H   0  0  0  0  0  0  0  0  0  0  0  0
    5.0039    2.2457   -0.0488 H   0  0  0  0  0  0  0  0  0  0  0  0
    2.9790    3.2053   -0.0741 H   0  0  0  0  0  0  0  0  0  0  0  0
  1  2  1  0  0  0  0
  1 18  1  0  0  0  0
  2  3  1  0  0  0  0
  2 16  2  0  0  0  0
  3  4  2  0  0  0  0
  3 19  1  0  0  0  0
  4  5  1  0  0  0  0
  4 14  1  0  0  0  0
  5  6  1  0  0  0  0
  5 20  1  0  0  0  0
  6  7  1  0  0  0  0
  6 13  2  0  0  0  0
  7  8  2  0  0  0  0
  7 21  1  0  0  0  0
  8  9  1  0  0  0  0
  8 10  1  0  0  0  0
  9 22  1  0  0  0  0
 10 11  1  0  0  0  0
 10 12  2  0  0  0  0
 11 23  1  0  0  0  0
 12 13  1  0  0  0  0
 12 24  1  0  0  0  0
 13 14  1  0  0  0  0
 14 15  2  0  0  0  0
 15 16  1  0  0  0  0
 15 25  1  0  0  0  0
 16 17  1  0  0  0  0
 17 26  1  0  0  0  0
M  END
$$$$
