
 OpenBabel01112422203D

 66 73  0  0  1  0  0  0  0  0999 V2000
    1.7329   -0.6551   -1.5487 C   0  0  0  0  0  0  0  0  0  0  0  0
    0.9492   -0.4313   -0.3882 O   0  0  0  0  0  0  0  0  0  0  0  0
    1.5982    0.0138    0.8135 C   0  0  1  0  0  0  0  0  0  0  0  0
    1.8632    1.5197    0.6803 C   0  0  1  0  0  0  0  0  0  0  0  0
    2.9039    1.7744   -0.4060 N   0  0  0  0  0  0  0  0  0  0  0  0
    4.2122    1.1111   -0.2644 C   0  0  0  0  0  0  0  0  0  0  0  0
    2.7104    2.6489   -1.4764 C   0  0  0  0  0  0  0  0  0  0  0  0
    3.7621    2.6418   -2.5803 C   0  0  0  0  0  0  0  0  0  0  0  0
    1.7460    3.4050   -1.5636 O   0  0  0  0  0  0  0  0  0  0  0  0
    0.4472    2.2191    0.6332 C   0  0  0  0  0  0  0  0  0  0  0  0
   -0.5712    1.7316    1.7529 C   0  0  2  0  0  0  0  0  0  0  0  0
    0.0805    0.9147    2.6939 O   0  0  0  0  0  0  0  0  0  0  0  0
    0.7629   -0.2409    2.1338 C   0  0  2  0  0  0  0  0  0  0  0  0
    1.7139   -0.4912    3.3281 C   0  0  0  0  0  0  0  0  0  0  0  0
   -0.2211   -1.3179    1.9132 N   0  0  0  0  0  0  0  0  0  0  0  0
    0.0887   -2.6811    1.7310 C   0  0  0  0  0  0  0  0  0  0  0  0
    1.0484   -3.4719    2.4141 C   0  0  0  0  0  0  0  0  0  0  0  0
    1.0569   -4.8531    2.2387 C   0  0  0  0  0  0  0  0  0  0  0  0
    0.1726   -5.4581    1.3593 C   0  0  0  0  0  0  0  0  0  0  0  0
   -0.6456   -4.6878    0.5182 C   0  0  0  0  0  0  0  0  0  0  0  0
   -0.6850   -3.2845    0.6542 C   0  0  0  0  0  0  0  0  0  0  0  0
   -1.3741   -2.2190   -0.0003 C   0  0  0  0  0  0  0  0  0  0  0  0
   -1.7203   -2.0514   -1.3780 C   0  0  0  0  0  0  0  0  0  0  0  0
   -2.1758   -0.7468   -1.7206 C   0  0  0  0  0  0  0  0  0  0  0  0
   -2.3172    0.1138   -0.6242 C   0  0  0  0  0  0  0  0  0  0  0  0
   -2.8479    1.4120   -0.5645 C   0  0  0  0  0  0  0  0  0  0  0  0
   -3.3600    2.4036   -1.4084 C   0  0  0  0  0  0  0  0  0  0  0  0
   -4.2847    3.3010   -0.8621 C   0  0  0  0  0  0  0  0  0  0  0  0
   -4.7540    3.1355    0.4437 C   0  0  0  0  0  0  0  0  0  0  0  0
   -4.0716    2.3189    1.3475 C   0  0  0  0  0  0  0  0  0  0  0  0
   -2.9366    1.6755    0.8433 C   0  0  0  0  0  0  0  0  0  0  0  0
   -1.8346    1.0502    1.4568 N   0  0  0  0  0  0  0  0  0  0  0  0
   -1.8197   -0.0325    0.6520 C   0  0  0  0  0  0  0  0  0  0  0  0
   -1.1858   -1.2166    0.9573 C   0  0  0  0  0  0  0  0  0  0  0  0
   -2.1430   -0.5315   -3.1209 C   0  0  0  0  0  0  0  0  0  0  0  0
   -2.3340    0.4451   -3.8353 O   0  0  0  0  0  0  0  0  0  0  0  0
   -1.6448   -1.7378   -3.6022 N   0  0  0  0  0  0  0  0  0  0  0  0
   -1.3497   -2.7727   -2.6001 C   0  0  0  0  0  0  0  0  0  0  0  0
    1.2991   -1.4822   -2.1145 H   0  0  0  0  0  0  0  0  0  0  0  0
    2.7595   -0.9336   -1.3103 H   0  0  0  0  0  0  0  0  0  0  0  0
    1.6942    0.2204   -2.2007 H   0  0  0  0  0  0  0  0  0  0  0  0
    2.5064   -0.5946    0.8949 H   0  0  0  0  0  0  0  0  0  0  0  0
    2.3632    1.8715    1.5910 H   0  0  0  0  0  0  0  0  0  0  0  0
    4.9752    1.8642   -0.0476 H   0  0  0  0  0  0  0  0  0  0  0  0
    4.2187    0.3685    0.5335 H   0  0  0  0  0  0  0  0  0  0  0  0
    4.4871    0.5939   -1.1878 H   0  0  0  0  0  0  0  0  0  0  0  0
    4.6694    3.1549   -2.2506 H   0  0  0  0  0  0  0  0  0  0  0  0
    3.3700    3.1567   -3.4639 H   0  0  0  0  0  0  0  0  0  0  0  0
    4.0052    1.6265   -2.9107 H   0  0  0  0  0  0  0  0  0  0  0  0
    0.6305    3.2858    0.8259 H   0  0  0  0  0  0  0  0  0  0  0  0
   -0.0129    2.1704   -0.3588 H   0  0  0  0  0  0  0  0  0  0  0  0
   -0.9024    2.6312    2.2906 H   0  0  0  0  0  0  0  0  0  0  0  0
    2.0538    0.4639    3.7527 H   0  0  0  0  0  0  0  0  0  0  0  0
    1.2032   -1.0143    4.1382 H   0  0  0  0  0  0  0  0  0  0  0  0
    2.6111   -1.0450    3.0419 H   0  0  0  0  0  0  0  0  0  0  0  0
    1.7373   -3.0422    3.1284 H   0  0  0  0  0  0  0  0  0  0  0  0
    1.7361   -5.4536    2.8390 H   0  0  0  0  0  0  0  0  0  0  0  0
    0.1182   -6.5436    1.3318 H   0  0  0  0  0  0  0  0  0  0  0  0
   -1.3283   -5.1932   -0.1608 H   0  0  0  0  0  0  0  0  0  0  0  0
   -3.0832    2.4471   -2.4546 H   0  0  0  0  0  0  0  0  0  0  0  0
   -4.7004    4.0814   -1.4919 H   0  0  0  0  0  0  0  0  0  0  0  0
   -5.6337    3.6835    0.7722 H   0  0  0  0  0  0  0  0  0  0  0  0
   -4.4096    2.1869    2.3710 H   0  0  0  0  0  0  0  0  0  0  0  0
   -1.2711   -1.7261   -4.5412 H   0  0  0  0  0  0  0  0  0  0  0  0
   -1.9653   -3.6430   -2.8123 H   0  0  0  0  0  0  0  0  0  0  0  0
   -0.2818   -2.9952   -2.6445 H   0  0  0  0  0  0  0  0  0  0  0  0
  1  2  1  0  0  0  0
  1 39  1  0  0  0  0
  1 40  1  0  0  0  0
  1 41  1  0  0  0  0
  3  4  1  0  0  0  0
  3 13  1  0  0  0  0
  3  2  1  0  0  0  0
  3 42  1  1  0  0  0
  4 10  1  0  0  0  0
  4  5  1  0  0  0  0
  4 43  1  1  0  0  0
  5  6  1  0  0  0  0
  5  7  1  0  0  0  0
  6 44  1  0  0  0  0
  6 45  1  0  0  0  0
  6 46  1  0  0  0  0
  7  8  1  0  0  0  0
  7  9  2  0  0  0  0
  8 47  1  0  0  0  0
  8 48  1  0  0  0  0
  8 49  1  0  0  0  0
 10 11  1  0  0  0  0
 10 50  1  0  0  0  0
 10 51  1  0  0  0  0
 11 12  1  0  0  0  0
 11 32  1  0  0  0  0
 11 52  1  1  0  0  0
 12 13  1  0  0  0  0
 13 15  1  0  0  0  0
 13 14  1  1  0  0  0
 14 53  1  0  0  0  0
 14 54  1  0  0  0  0
 14 55  1  0  0  0  0
 15 16  1  0  0  0  0
 15 34  1  0  0  0  0
 16 17  1  0  0  0  0
 16 21  2  0  0  0  0
 17 18  2  0  0  0  0
 17 56  1  0  0  0  0
 18 19  1  0  0  0  0
 18 57  1  0  0  0  0
 19 20  2  0  0  0  0
 19 58  1  0  0  0  0
 20 21  1  0  0  0  0
 20 59  1  0  0  0  0
 21 22  1  0  0  0  0
 22 23  1  0  0  0  0
 22 34  2  0  0  0  0
 23 24  2  0  0  0  0
 23 38  1  0  0  0  0
 24 25  1  0  0  0  0
 24 35  1  0  0  0  0
 25 26  1  0  0  0  0
 25 33  2  0  0  0  0
 26 27  1  0  0  0  0
 26 31  2  0  0  0  0
 27 28  2  0  0  0  0
 27 60  1  0  0  0  0
 28 29  1  0  0  0  0
 28 61  1  0  0  0  0
 29 30  2  0  0  0  0
 29 62  1  0  0  0  0
 30 31  1  0  0  0  0
 30 63  1  0  0  0  0
 31 32  1  0  0  0  0
 32 33  1  0  0  0  0
 33 34  1  0  0  0  0
 35 37  1  0  0  0  0
 35 36  2  0  0  0  0
 37 38  1  0  0  0  0
 37 64  1  0  0  0  0
 38 65  1  0  0  0  0
 38 66  1  0  0  0  0
M  END
$$$$
