
 OpenBabel01112422453D

 26 28  0  0  0  0  0  0  0  0999 V2000
    0.1422   -1.3799   -2.2575 N   0  0  0  0  0  0  0  0  0  0  0  0
    0.3429   -0.6853   -1.0827 C   0  0  0  0  0  0  0  0  0  0  0  0
   -0.0591   -1.2730    0.0469 N   0  0  0  0  0  0  0  0  0  0  0  0
    0.1912   -0.6104    1.1884 C   0  0  0  0  0  0  0  0  0  0  0  0
    0.8079    0.6136    1.2328 C   0  0  0  0  0  0  0  0  0  0  0  0
    1.1554    1.1510    0.0116 C   0  0  0  0  0  0  0  0  0  0  0  0
    1.8597    2.4284   -0.0805 C   0  0  0  0  0  0  0  0  0  0  0  0
    1.7594    3.4389    0.8607 C   0  0  0  0  0  0  0  0  0  0  0  0
    2.5875    4.4638    0.4866 N   0  0  0  0  0  0  0  0  0  0  0  0
    3.2254    4.1527   -0.6904 C   0  0  0  0  0  0  0  0  0  0  0  0
    4.1631    4.8887   -1.4268 C   0  0  0  0  0  0  0  0  0  0  0  0
    4.6570    4.3244   -2.6122 C   0  0  0  0  0  0  0  0  0  0  0  0
    5.9292    5.3590   -3.5765 Br  0  0  0  0  0  0  0  0  0  0  0  0
    4.2223    3.0672   -3.0391 C   0  0  0  0  0  0  0  0  0  0  0  0
    4.8440    2.2442   -4.6366 Br  0  0  0  0  0  0  0  0  0  0  0  0
    3.2886    2.3463   -2.2802 C   0  0  0  0  0  0  0  0  0  0  0  0
    2.7760    2.8921   -1.0833 C   0  0  0  0  0  0  0  0  0  0  0  0
    0.9192    0.5153   -1.1554 N   0  0  0  0  0  0  0  0  0  0  0  0
   -0.5904   -2.0618   -2.1405 H   0  0  0  0  0  0  0  0  0  0  0  0
    0.0825   -0.7458   -3.0417 H   0  0  0  0  0  0  0  0  0  0  0  0
   -0.1149   -1.1192    2.0981 H   0  0  0  0  0  0  0  0  0  0  0  0
    1.0240    1.0969    2.1740 H   0  0  0  0  0  0  0  0  0  0  0  0
    1.1734    3.5237    1.7664 H   0  0  0  0  0  0  0  0  0  0  0  0
    2.7193    5.3238    1.0009 H   0  0  0  0  0  0  0  0  0  0  0  0
    4.4975    5.8636   -1.0852 H   0  0  0  0  0  0  0  0  0  0  0  0
    2.9518    1.3645   -2.6057 H   0  0  0  0  0  0  0  0  0  0  0  0
  1  2  1  0  0  0  0
  1 19  1  0  0  0  0
  1 20  1  0  0  0  0
  2  3  1  0  0  0  0
  2 18  2  0  0  0  0
  3  4  2  0  0  0  0
  4  5  1  0  0  0  0
  4 21  1  0  0  0  0
  5  6  2  0  0  0  0
  5 22  1  0  0  0  0
  6  7  1  0  0  0  0
  6 18  1  0  0  0  0
  7  8  2  0  0  0  0
  7 17  1  0  0  0  0
  8  9  1  0  0  0  0
  8 23  1  0  0  0  0
  9 10  1  0  0  0  0
  9 24  1  0  0  0  0
 10 11  1  0  0  0  0
 10 17  2  0  0  0  0
 11 12  2  0  0  0  0
 11 25  1  0  0  0  0
 12 13  1  0  0  0  0
 12 14  1  0  0  0  0
 14 15  1  0  0  0  0
 14 16  2  0  0  0  0
 16 17  1  0  0  0  0
 16 26  1  0  0  0  0
M  END
$$$$
