
 OpenBabel01112422563D

 42 45  0  0  0  0  0  0  0  0999 V2000
    1.2742   -0.5998   -0.1620 N   0  0  0  0  0  0  0  0  0  0  0  0
    2.4124   -0.3733   -0.1099 C   0  0  0  0  0  0  0  0  0  0  0  0
    3.8271   -0.1667   -0.0923 C   0  0  0  0  0  0  0  0  0  0  0  0
    4.6268   -1.2925   -0.1107 C   0  0  0  0  0  0  0  0  0  0  0  0
    5.9733   -1.2646   -0.0827 N   0  0  0  0  0  0  0  0  0  0  0  0
    6.6088   -0.0763   -0.0489 C   0  0  0  0  0  0  0  0  0  0  0  0
    8.0090   -0.0274   -0.0581 C   0  0  0  0  0  0  0  0  0  0  0  0
    8.9496   -1.4877   -0.0493 Cl  0  0  0  0  0  0  0  0  0  0  0  0
    8.7156    1.1782   -0.0822 C   0  0  0  0  0  0  0  0  0  0  0  0
    8.0439    2.3930   -0.0646 C   0  0  0  0  0  0  0  0  0  0  0  0
    8.7833    3.5621   -0.0717 N   0  0  0  0  0  0  0  0  0  0  0  0
    8.3008    4.8349    0.4372 C   0  0  0  0  0  0  0  0  0  0  0  0
    7.3923    5.5951   -0.4564 C   0  0  0  0  0  0  0  0  0  0  0  0
    6.3470    6.4470   -0.1686 C   0  0  0  0  0  0  0  0  0  0  0  0
    5.7705    6.9116   -1.3190 N   0  0  0  0  0  0  0  0  0  0  0  0
    6.4584    6.3766   -2.2991 C   0  0  0  0  0  0  0  0  0  0  0  0
    7.4546    5.5665   -1.8238 N   0  0  0  0  0  0  0  0  0  0  0  0
    6.6488    2.3529    0.0021 C   0  0  0  0  0  0  0  0  0  0  0  0
    5.8931    1.1437   -0.0153 C   0  0  0  0  0  0  0  0  0  0  0  0
    4.4539    1.0910   -0.0266 C   0  0  0  0  0  0  0  0  0  0  0  0
    3.6979    2.2962    0.0868 N   0  0  0  0  0  0  0  0  0  0  0  0
    2.5206    2.7069   -0.5799 C   0  0  0  0  0  0  0  0  0  0  0  0
    1.6839    3.6302    0.0684 C   0  0  0  0  0  0  0  0  0  0  0  0
    0.5463    4.1326   -0.5653 C   0  0  0  0  0  0  0  0  0  0  0  0
    0.2437    3.7183   -1.8558 C   0  0  0  0  0  0  0  0  0  0  0  0
   -0.8414    4.2257   -2.4584 F   0  0  0  0  0  0  0  0  0  0  0  0
    1.0649    2.8057   -2.5144 C   0  0  0  0  0  0  0  0  0  0  0  0
    0.7043    2.3012   -4.1219 Cl  0  0  0  0  0  0  0  0  0  0  0  0
    2.2067    2.3051   -1.8822 C   0  0  0  0  0  0  0  0  0  0  0  0
    4.2007   -2.2939   -0.1425 H   0  0  0  0  0  0  0  0  0  0  0  0
    9.8032    1.1612   -0.0861 H   0  0  0  0  0  0  0  0  0  0  0  0
    9.4984    3.6151   -0.7892 H   0  0  0  0  0  0  0  0  0  0  0  0
    9.1747    5.4634    0.6412 H   0  0  0  0  0  0  0  0  0  0  0  0
    7.8164    4.6777    1.4088 H   0  0  0  0  0  0  0  0  0  0  0  0
    5.9756    6.7420    0.8020 H   0  0  0  0  0  0  0  0  0  0  0  0
    6.2881    6.5322   -3.3531 H   0  0  0  0  0  0  0  0  0  0  0  0
    8.0947    5.0316   -2.3850 H   0  0  0  0  0  0  0  0  0  0  0  0
    6.1293    3.3029    0.0093 H   0  0  0  0  0  0  0  0  0  0  0  0
    4.2628    3.1239    0.2491 H   0  0  0  0  0  0  0  0  0  0  0  0
    1.9119    3.9575    1.0812 H   0  0  0  0  0  0  0  0  0  0  0  0
   -0.0996    4.8465   -0.0637 H   0  0  0  0  0  0  0  0  0  0  0  0
    2.8537    1.6191   -2.4193 H   0  0  0  0  0  0  0  0  0  0  0  0
  1  2  3  0  0  0  0
  2  3  1  0  0  0  0
  3  4  1  0  0  0  0
  3 20  2  0  0  0  0
  4  5  2  0  0  0  0
  4 30  1  0  0  0  0
  5  6  1  0  0  0  0
  6  7  1  0  0  0  0
  6 19  2  0  0  0  0
  7  8  1  0  0  0  0
  7  9  2  0  0  0  0
  9 10  1  0  0  0  0
  9 31  1  0  0  0  0
 10 11  1  0  0  0  0
 10 18  2  0  0  0  0
 11 12  1  0  0  0  0
 11 32  1  0  0  0  0
 12 13  1  0  0  0  0
 12 33  1  0  0  0  0
 12 34  1  0  0  0  0
 13 14  2  0  0  0  0
 13 17  1  0  0  0  0
 14 15  1  0  0  0  0
 14 35  1  0  0  0  0
 15 16  2  0  0  0  0
 16 17  1  0  0  0  0
 16 36  1  0  0  0  0
 17 37  1  0  0  0  0
 18 19  1  0  0  0  0
 18 38  1  0  0  0  0
 19 20  1  0  0  0  0
 20 21  1  0  0  0  0
 21 22  1  0  0  0  0
 21 39  1  0  0  0  0
 22 23  1  0  0  0  0
 22 29  2  0  0  0  0
 23 24  2  0  0  0  0
 23 40  1  0  0  0  0
 24 25  1  0  0  0  0
 24 41  1  0  0  0  0
 25 26  1  0  0  0  0
 25 27  2  0  0  0  0
 27 28  1  0  0  0  0
 27 29  1  0  0  0  0
 29 42  1  0  0  0  0
M  END
$$$$
