
 OpenBabel01112422323D

 57 62  0  0  0  0  0  0  0  0999 V2000
    1.3666   -0.0900    0.8840 C   0  0  0  0  0  0  0  0  0  0  0  0
    2.0124   -1.0259   -0.0077 N   0  0  0  0  0  0  0  0  0  0  0  0
    1.3626   -1.3693   -1.1820 C   0  0  0  0  0  0  0  0  0  0  0  0
    2.2567   -2.0124   -1.9791 C   0  0  0  0  0  0  0  0  0  0  0  0
    3.2306   -2.5059   -1.0885 C   0  0  0  0  0  0  0  0  0  0  0  0
    4.1377   -3.5544   -1.2888 C   0  0  0  0  0  0  0  0  0  0  0  0
    5.0754   -3.8392   -0.3320 C   0  0  0  0  0  0  0  0  0  0  0  0
    5.2526   -2.8929    0.6633 C   0  0  0  0  0  0  0  0  0  0  0  0
    6.4856   -2.9571    1.3014 C   0  0  0  0  0  0  0  0  0  0  0  0
    7.3939   -3.9598    1.4746 N   0  0  0  0  0  0  0  0  0  0  0  0
    8.3408   -3.5945    2.4186 C   0  0  0  0  0  0  0  0  0  0  0  0
    9.2766   -4.4108    3.0550 C   0  0  0  0  0  0  0  0  0  0  0  0
    9.4201   -5.8824    2.7458 C   0  0  0  0  0  0  0  0  0  0  0  0
    9.8369   -6.1520    1.2946 C   0  0  0  0  0  0  0  0  0  0  0  0
   11.1683   -5.4918    0.9335 C   0  0  0  0  0  0  0  0  0  0  0  0
   11.4435   -5.7239   -0.4874 N   0  0  0  0  0  0  0  0  0  0  0  0
   12.7311   -5.1120   -0.8571 C   0  0  0  0  0  0  0  0  0  0  0  0
   13.0499   -5.3822   -2.3304 C   0  0  0  0  0  0  0  0  0  0  0  0
   12.0420   -4.8255   -3.1719 O   0  0  0  0  0  0  0  0  0  0  0  0
   10.0598   -3.7907    4.0432 C   0  0  0  0  0  0  0  0  0  0  0  0
    9.9467   -2.4281    4.3126 C   0  0  0  0  0  0  0  0  0  0  0  0
    9.0316   -1.6289    3.6286 C   0  0  0  0  0  0  0  0  0  0  0  0
    8.1760   -2.2298    2.6839 C   0  0  0  0  0  0  0  0  0  0  0  0
    7.0523   -1.8919    1.9227 C   0  0  0  0  0  0  0  0  0  0  0  0
    6.2710   -0.7292    2.1542 C   0  0  0  0  0  0  0  0  0  0  0  0
    4.8591   -0.9728    1.9892 C   0  0  0  0  0  0  0  0  0  0  0  0
    4.3495   -1.8294    0.9830 C   0  0  0  0  0  0  0  0  0  0  0  0
    3.2047   -1.7382    0.1176 C   0  0  0  0  0  0  0  0  0  0  0  0
    4.3811   -0.6032    3.3107 C   0  0  0  0  0  0  0  0  0  0  0  0
    3.5487   -1.1216    4.0488 O   0  0  0  0  0  0  0  0  0  0  0  0
    5.3012    0.2915    3.7819 N   0  0  0  0  0  0  0  0  0  0  0  0
    6.5009    0.3249    3.0720 C   0  0  0  0  0  0  0  0  0  0  0  0
    7.4282    1.0674    3.3175 O   0  0  0  0  0  0  0  0  0  0  0  0
    1.9535    0.8279    0.9155 H   0  0  0  0  0  0  0  0  0  0  0  0
    1.2174   -0.5453    1.8606 H   0  0  0  0  0  0  0  0  0  0  0  0
    0.3784    0.1593    0.4655 H   0  0  0  0  0  0  0  0  0  0  0  0
    0.3399   -1.0798   -1.3858 H   0  0  0  0  0  0  0  0  0  0  0  0
    2.1307   -2.2885   -3.0174 H   0  0  0  0  0  0  0  0  0  0  0  0
    4.0981   -4.1422   -2.2001 H   0  0  0  0  0  0  0  0  0  0  0  0
    5.7513   -4.6704   -0.4965 H   0  0  0  0  0  0  0  0  0  0  0  0
    7.2446   -4.9125    1.1723 H   0  0  0  0  0  0  0  0  0  0  0  0
    8.4534   -6.3681    2.9362 H   0  0  0  0  0  0  0  0  0  0  0  0
   10.1410   -6.3482    3.4290 H   0  0  0  0  0  0  0  0  0  0  0  0
    9.0626   -5.8095    0.5987 H   0  0  0  0  0  0  0  0  0  0  0  0
    9.9077   -7.2365    1.1485 H   0  0  0  0  0  0  0  0  0  0  0  0
   11.9611   -5.9174    1.5587 H   0  0  0  0  0  0  0  0  0  0  0  0
   11.1262   -4.4125    1.1186 H   0  0  0  0  0  0  0  0  0  0  0  0
   10.7115   -5.2549   -1.0222 H   0  0  0  0  0  0  0  0  0  0  0  0
   13.5377   -5.5193   -0.2375 H   0  0  0  0  0  0  0  0  0  0  0  0
   12.6757   -4.0287   -0.6947 H   0  0  0  0  0  0  0  0  0  0  0  0
   13.1199   -6.4564   -2.5333 H   0  0  0  0  0  0  0  0  0  0  0  0
   14.0051   -4.9209   -2.5973 H   0  0  0  0  0  0  0  0  0  0  0  0
   11.2435   -5.3579   -3.0148 H   0  0  0  0  0  0  0  0  0  0  0  0
   10.7750   -4.3794    4.6174 H   0  0  0  0  0  0  0  0  0  0  0  0
   10.5674   -1.9766    5.0827 H   0  0  0  0  0  0  0  0  0  0  0  0
    8.9699   -0.5729    3.8703 H   0  0  0  0  0  0  0  0  0  0  0  0
    5.3865    0.5268    4.7601 H   0  0  0  0  0  0  0  0  0  0  0  0
  1  2  1  0  0  0  0
  1 34  1  0  0  0  0
  1 35  1  0  0  0  0
  1 36  1  0  0  0  0
  2  3  1  0  0  0  0
  2 28  1  0  0  0  0
  3  4  2  0  0  0  0
  3 37  1  0  0  0  0
  4  5  1  0  0  0  0
  4 38  1  0  0  0  0
  5  6  1  0  0  0  0
  5 28  2  0  0  0  0
  6  7  2  0  0  0  0
  6 39  1  0  0  0  0
  7  8  1  0  0  0  0
  7 40  1  0  0  0  0
  8  9  1  0  0  0  0
  8 27  2  0  0  0  0
  9 10  1  0  0  0  0
  9 24  2  0  0  0  0
 10 11  1  0  0  0  0
 10 41  1  0  0  0  0
 11 12  1  0  0  0  0
 11 23  2  0  0  0  0
 12 13  1  0  0  0  0
 12 20  2  0  0  0  0
 13 14  1  0  0  0  0
 13 42  1  0  0  0  0
 13 43  1  0  0  0  0
 14 15  1  0  0  0  0
 14 44  1  0  0  0  0
 14 45  1  0  0  0  0
 15 16  1  0  0  0  0
 15 46  1  0  0  0  0
 15 47  1  0  0  0  0
 16 17  1  0  0  0  0
 16 48  1  0  0  0  0
 17 18  1  0  0  0  0
 17 49  1  0  0  0  0
 17 50  1  0  0  0  0
 18 19  1  0  0  0  0
 18 51  1  0  0  0  0
 18 52  1  0  0  0  0
 19 53  1  0  0  0  0
 20 21  1  0  0  0  0
 20 54  1  0  0  0  0
 21 22  2  0  0  0  0
 21 55  1  0  0  0  0
 22 23  1  0  0  0  0
 22 56  1  0  0  0  0
 23 24  1  0  0  0  0
 24 25  1  0  0  0  0
 25 26  2  0  0  0  0
 25 32  1  0  0  0  0
 26 27  1  0  0  0  0
 26 29  1  0  0  0  0
 27 28  1  0  0  0  0
 29 30  2  0  0  0  0
 29 31  1  0  0  0  0
 31 32  1  0  0  0  0
 31 57  1  0  0  0  0
 32 33  2  0  0  0  0
M  END
$$$$
