
 OpenBabel01112422343D

 60 66  0  0  0  0  0  0  0  0999 V2000
    1.2802   -0.1262    0.7663 C   0  0  0  0  0  0  0  0  0  0  0  0
    2.0091   -1.0981   -0.0112 N   0  0  0  0  0  0  0  0  0  0  0  0
    1.3305   -1.7219   -1.0757 C   0  0  0  0  0  0  0  0  0  0  0  0
    2.3784   -2.0946   -1.8882 C   0  0  0  0  0  0  0  0  0  0  0  0
    3.1757   -2.7110   -0.8825 C   0  0  0  0  0  0  0  0  0  0  0  0
    3.9721   -3.8614   -0.9174 C   0  0  0  0  0  0  0  0  0  0  0  0
    4.9138   -4.0420    0.0596 C   0  0  0  0  0  0  0  0  0  0  0  0
    5.1743   -2.9623    0.8993 C   0  0  0  0  0  0  0  0  0  0  0  0
    6.4326   -2.9449    1.4766 C   0  0  0  0  0  0  0  0  0  0  0  0
    7.4008   -3.8946    1.6637 N   0  0  0  0  0  0  0  0  0  0  0  0
    8.3242   -3.4559    2.5899 C   0  0  0  0  0  0  0  0  0  0  0  0
    9.2578   -4.2134    3.3158 C   0  0  0  0  0  0  0  0  0  0  0  0
    9.3238   -5.7115    3.0862 C   0  0  0  0  0  0  0  0  0  0  0  0
   10.3080   -6.5091    3.9463 C   0  0  0  0  0  0  0  0  0  0  0  0
   10.4352   -7.9320    3.5645 N   0  0  0  0  0  0  0  0  0  0  0  0
   11.4410   -8.5632    4.4377 C   0  0  0  0  0  0  0  0  0  0  0  0
   11.6823  -10.0235    4.0660 C   0  0  0  0  0  0  0  0  0  0  0  0
   10.3842  -10.8187    4.0883 C   0  0  0  0  0  0  0  0  0  0  0  0
    9.3346  -10.1313    3.2264 C   0  0  0  0  0  0  0  0  0  0  0  0
    9.1596   -8.6627    3.6221 C   0  0  0  0  0  0  0  0  0  0  0  0
   10.0264   -3.5158    4.2577 C   0  0  0  0  0  0  0  0  0  0  0  0
    9.9227   -2.1399    4.4074 C   0  0  0  0  0  0  0  0  0  0  0  0
    8.9859   -1.4091    3.6448 C   0  0  0  0  0  0  0  0  0  0  0  0
    8.1606   -2.0728    2.7700 C   0  0  0  0  0  0  0  0  0  0  0  0
    7.0167   -1.8108    1.9907 C   0  0  0  0  0  0  0  0  0  0  0  0
    6.2168   -0.6498    2.1705 C   0  0  0  0  0  0  0  0  0  0  0  0
    4.8160   -0.9104    2.0347 C   0  0  0  0  0  0  0  0  0  0  0  0
    4.2957   -1.8534    1.1188 C   0  0  0  0  0  0  0  0  0  0  0  0
    3.1818   -1.8128    0.2289 C   0  0  0  0  0  0  0  0  0  0  0  0
    4.3592   -0.5290    3.3639 C   0  0  0  0  0  0  0  0  0  0  0  0
    3.5885   -1.0679    4.1509 O   0  0  0  0  0  0  0  0  0  0  0  0
    5.2709    0.4288    3.7706 N   0  0  0  0  0  0  0  0  0  0  0  0
    6.4288    0.4397    3.0526 C   0  0  0  0  0  0  0  0  0  0  0  0
    7.3551    1.2100    3.2527 O   0  0  0  0  0  0  0  0  0  0  0  0
    1.8308    0.8128    0.7640 H   0  0  0  0  0  0  0  0  0  0  0  0
    1.0855   -0.5206    1.7612 H   0  0  0  0  0  0  0  0  0  0  0  0
    0.3153    0.0451    0.2617 H   0  0  0  0  0  0  0  0  0  0  0  0
    0.4732   -2.3226   -0.7892 H   0  0  0  0  0  0  0  0  0  0  0  0
    2.8529   -1.3390   -2.5216 H   0  0  0  0  0  0  0  0  0  0  0  0
    3.8866   -4.5584   -1.7449 H   0  0  0  0  0  0  0  0  0  0  0  0
    5.5353   -4.9231    0.0174 H   0  0  0  0  0  0  0  0  0  0  0  0
    7.3038   -4.8598    1.3889 H   0  0  0  0  0  0  0  0  0  0  0  0
    9.5649   -5.8722    2.0258 H   0  0  0  0  0  0  0  0  0  0  0  0
    8.3111   -6.1021    3.2519 H   0  0  0  0  0  0  0  0  0  0  0  0
   10.0199   -6.4203    5.0011 H   0  0  0  0  0  0  0  0  0  0  0  0
   11.2955   -6.0453    3.8346 H   0  0  0  0  0  0  0  0  0  0  0  0
   11.1297   -8.4991    5.4888 H   0  0  0  0  0  0  0  0  0  0  0  0
   12.3945   -8.0277    4.3482 H   0  0  0  0  0  0  0  0  0  0  0  0
   12.3995  -10.4659    4.7662 H   0  0  0  0  0  0  0  0  0  0  0  0
   12.1319  -10.0788    3.0667 H   0  0  0  0  0  0  0  0  0  0  0  0
   10.0182  -10.8979    5.1187 H   0  0  0  0  0  0  0  0  0  0  0  0
   10.5613  -11.8374    3.7275 H   0  0  0  0  0  0  0  0  0  0  0  0
    8.3773  -10.6567    3.3198 H   0  0  0  0  0  0  0  0  0  0  0  0
    9.6301  -10.1938    2.1711 H   0  0  0  0  0  0  0  0  0  0  0  0
    8.7170   -8.5978    4.6240 H   0  0  0  0  0  0  0  0  0  0  0  0
    8.4394   -8.2334    2.9162 H   0  0  0  0  0  0  0  0  0  0  0  0
   10.7216   -4.0426    4.9046 H   0  0  0  0  0  0  0  0  0  0  0  0
   10.5151   -1.6288    5.1670 H   0  0  0  0  0  0  0  0  0  0  0  0
    8.9369   -0.3447    3.8297 H   0  0  0  0  0  0  0  0  0  0  0  0
    5.3538    0.6863    4.7450 H   0  0  0  0  0  0  0  0  0  0  0  0
  1  2  1  0  0  0  0
  1 35  1  0  0  0  0
  1 36  1  0  0  0  0
  1 37  1  0  0  0  0
  2  3  1  0  0  0  0
  2 29  1  0  0  0  0
  3  4  2  0  0  0  0
  3 38  1  0  0  0  0
  4  5  1  0  0  0  0
  4 39  1  0  0  0  0
  5  6  1  0  0  0  0
  5 29  2  0  0  0  0
  6  7  2  0  0  0  0
  6 40  1  0  0  0  0
  7  8  1  0  0  0  0
  7 41  1  0  0  0  0
  8  9  1  0  0  0  0
  8 28  2  0  0  0  0
  9 10  1  0  0  0  0
  9 25  2  0  0  0  0
 10 11  1  0  0  0  0
 10 42  1  0  0  0  0
 11 12  1  0  0  0  0
 11 24  2  0  0  0  0
 12 13  1  0  0  0  0
 12 21  2  0  0  0  0
 13 14  1  0  0  0  0
 13 43  1  0  0  0  0
 13 44  1  0  0  0  0
 14 15  1  0  0  0  0
 14 45  1  0  0  0  0
 14 46  1  0  0  0  0
 15 16  1  0  0  0  0
 15 20  1  0  0  0  0
 16 17  1  0  0  0  0
 16 47  1  0  0  0  0
 16 48  1  0  0  0  0
 17 18  1  0  0  0  0
 17 49  1  0  0  0  0
 17 50  1  0  0  0  0
 18 19  1  0  0  0  0
 18 51  1  0  0  0  0
 18 52  1  0  0  0  0
 19 20  1  0  0  0  0
 19 53  1  0  0  0  0
 19 54  1  0  0  0  0
 20 55  1  0  0  0  0
 20 56  1  0  0  0  0
 21 22  1  0  0  0  0
 21 57  1  0  0  0  0
 22 23  2  0  0  0  0
 22 58  1  0  0  0  0
 23 24  1  0  0  0  0
 23 59  1  0  0  0  0
 24 25  1  0  0  0  0
 25 26  1  0  0  0  0
 26 27  2  0  0  0  0
 26 33  1  0  0  0  0
 27 28  1  0  0  0  0
 27 30  1  0  0  0  0
 28 29  1  0  0  0  0
 30 31  2  0  0  0  0
 30 32  1  0  0  0  0
 32 33  1  0  0  0  0
 32 60  1  0  0  0  0
 33 34  2  0  0  0  0
M  END
$$$$
