
 OpenBabel01112422503D

 26 27  0  0  0  0  0  0  0  0999 V2000
    1.0316   -0.0824    0.0725 C   0  0  0  0  0  0  0  0  0  0  0  0
    2.5319   -0.0216    0.0762 C   0  0  0  0  0  0  0  0  0  0  0  0
    3.1809    1.2070    0.0792 C   0  0  0  0  0  0  0  0  0  0  0  0
    4.5852    1.2695    0.0867 C   0  0  0  0  0  0  0  0  0  0  0  0
    5.2489    2.6173    0.0933 C   0  0  0  0  0  0  0  0  0  0  0  0
    5.2918    0.0348    0.0895 C   0  0  0  0  0  0  0  0  0  0  0  0
    6.6910   -0.3198    0.0967 C   0  0  0  0  0  0  0  0  0  0  0  0
    7.7058    0.5735    0.1024 N   0  0  0  0  0  0  0  0  0  0  0  0
    6.9145   -1.6874    0.0978 C   0  0  0  0  0  0  0  0  0  0  0  0
    8.1935   -2.3821    0.1042 C   0  0  0  0  0  0  0  0  0  0  0  0
    8.1590   -3.7503    0.1058 N   0  0  0  0  0  0  0  0  0  0  0  0
    9.2894   -1.8226    0.1078 O   0  0  0  0  0  0  0  0  0  0  0  0
    5.4363   -2.5502    0.0894 S   0  0  0  0  0  0  0  0  0  0  0  0
    4.5168   -1.1219    0.0852 C   0  0  0  0  0  0  0  0  0  0  0  0
    3.1712   -1.2052    0.0789 N   0  0  0  0  0  0  0  0  0  0  0  0
    0.5834    0.9162    0.0702 H   0  0  0  0  0  0  0  0  0  0  0  0
    0.6795   -0.6111    0.9637 H   0  0  0  0  0  0  0  0  0  0  0  0
    0.6832   -0.6139   -0.8185 H   0  0  0  0  0  0  0  0  0  0  0  0
    2.5974    2.1239    0.0764 H   0  0  0  0  0  0  0  0  0  0  0  0
    4.5170    3.4316    0.0901 H   0  0  0  0  0  0  0  0  0  0  0  0
    5.8748    2.7323   -0.7969 H   0  0  0  0  0  0  0  0  0  0  0  0
    5.8626    2.7285    0.9926 H   0  0  0  0  0  0  0  0  0  0  0  0
    7.5940    1.5788    0.0978 H   0  0  0  0  0  0  0  0  0  0  0  0
    8.6809    0.2621    0.1045 H   0  0  0  0  0  0  0  0  0  0  0  0
    7.2875   -4.2616    0.1013 H   0  0  0  0  0  0  0  0  0  0  0  0
    9.0364   -4.2497    0.1092 H   0  0  0  0  0  0  0  0  0  0  0  0
  1  2  1  0  0  0  0
  1 16  1  0  0  0  0
  1 17  1  0  0  0  0
  1 18  1  0  0  0  0
  2  3  1  0  0  0  0
  2 15  2  0  0  0  0
  3  4  2  0  0  0  0
  3 19  1  0  0  0  0
  4  5  1  0  0  0  0
  4  6  1  0  0  0  0
  5 20  1  0  0  0  0
  5 21  1  0  0  0  0
  5 22  1  0  0  0  0
  6  7  1  0  0  0  0
  6 14  2  0  0  0  0
  7  8  1  0  0  0  0
  7  9  2  0  0  0  0
  8 23  1  0  0  0  0
  8 24  1  0  0  0  0
  9 10  1  0  0  0  0
  9 13  1  0  0  0  0
 10 11  1  0  0  0  0
 10 12  2  0  0  0  0
 11 25  1  0  0  0  0
 11 26  1  0  0  0  0
 13 14  1  0  0  0  0
 14 15  1  0  0  0  0
M  END
$$$$
