
 OpenBabel01112422423D

 44 47  0  0  0  0  0  0  0  0999 V2000
   -2.4047   -2.3147    6.2661 C   0  0  0  0  0  0  0  0  0  0  0  0
   -2.1940   -3.5634    5.0316 S   0  0  0  0  0  0  0  0  0  0  0  0
   -2.7504   -4.7960    5.5319 O   0  0  0  0  0  0  0  0  0  0  0  0
   -2.6322   -3.0097    3.7533 O   0  0  0  0  0  0  0  0  0  0  0  0
   -0.4328   -3.7729    4.9307 C   0  0  0  0  0  0  0  0  0  0  0  0
    0.1713   -4.8109    5.6452 C   0  0  0  0  0  0  0  0  0  0  0  0
    1.5284   -5.0789    5.4548 C   0  0  0  0  0  0  0  0  0  0  0  0
    2.2817   -4.2871    4.5826 C   0  0  0  0  0  0  0  0  0  0  0  0
    3.6666   -4.6330    4.2163 C   0  0  0  0  0  0  0  0  0  0  0  0
    3.9589   -4.4385    3.0296 O   0  0  0  0  0  0  0  0  0  0  0  0
    4.6800   -5.1918    5.0307 N   0  0  0  0  0  0  0  0  0  0  0  0
    5.8501   -5.7621    4.5107 C   0  0  0  0  0  0  0  0  0  0  0  0
    6.2311   -6.1624    3.2192 C   0  0  0  0  0  0  0  0  0  0  0  0
    7.6003   -6.1978    2.9828 C   0  0  0  0  0  0  0  0  0  0  0  0
    8.0916   -6.5863    1.7685 O   0  0  0  0  0  0  0  0  0  0  0  0
    8.5115   -5.8134    3.9568 C   0  0  0  0  0  0  0  0  0  0  0  0
    9.8035   -5.5489    3.6071 O   0  0  0  0  0  0  0  0  0  0  0  0
    8.1259   -5.7112    5.2852 C   0  0  0  0  0  0  0  0  0  0  0  0
    6.7519   -5.8020    5.5644 C   0  0  0  0  0  0  0  0  0  0  0  0
    5.9358   -6.0086    6.6970 C   0  0  0  0  0  0  0  0  0  0  0  0
    6.0721   -6.6423    7.9476 C   0  0  0  0  0  0  0  0  0  0  0  0
    7.3646   -8.0060    8.1884 Br  0  0  0  0  0  0  0  0  0  0  0  0
    5.1622   -6.3695    8.9677 C   0  0  0  0  0  0  0  0  0  0  0  0
    4.2373   -5.3577    8.7704 C   0  0  0  0  0  0  0  0  0  0  0  0
    3.4617   -4.8961    9.8005 O   0  0  0  0  0  0  0  0  0  0  0  0
    4.0470   -4.7726    7.5109 C   0  0  0  0  0  0  0  0  0  0  0  0
    3.2090   -3.6959    7.3956 O   0  0  0  0  0  0  0  0  0  0  0  0
    4.7734   -5.2728    6.4253 C   0  0  0  0  0  0  0  0  0  0  0  0
    1.6659   -3.2340    3.8861 C   0  0  0  0  0  0  0  0  0  0  0  0
    0.3055   -2.9789    4.0511 C   0  0  0  0  0  0  0  0  0  0  0  0
   -3.4761   -2.1281    6.3719 H   0  0  0  0  0  0  0  0  0  0  0  0
   -1.8995   -1.4018    5.9473 H   0  0  0  0  0  0  0  0  0  0  0  0
   -1.9955   -2.6784    7.2096 H   0  0  0  0  0  0  0  0  0  0  0  0
   -0.4080   -5.4435    6.3157 H   0  0  0  0  0  0  0  0  0  0  0  0
    1.9731   -5.9214    5.9764 H   0  0  0  0  0  0  0  0  0  0  0  0
    5.5052   -6.3333    2.4326 H   0  0  0  0  0  0  0  0  0  0  0  0
    7.5853   -7.3836    1.5241 H   0  0  0  0  0  0  0  0  0  0  0  0
    9.7866   -5.5297    2.6286 H   0  0  0  0  0  0  0  0  0  0  0  0
    8.8489   -5.4971    6.0642 H   0  0  0  0  0  0  0  0  0  0  0  0
    5.2269   -6.9053    9.9083 H   0  0  0  0  0  0  0  0  0  0  0  0
    3.6896   -5.3983   10.6038 H   0  0  0  0  0  0  0  0  0  0  0  0
    3.0035   -3.4441    8.3195 H   0  0  0  0  0  0  0  0  0  0  0  0
    2.2388   -2.6451    3.1691 H   0  0  0  0  0  0  0  0  0  0  0  0
   -0.1709   -2.1981    3.4615 H   0  0  0  0  0  0  0  0  0  0  0  0
  1  2  1  0  0  0  0
  1 31  1  0  0  0  0
  1 32  1  0  0  0  0
  1 33  1  0  0  0  0
  2  3  2  0  0  0  0
  2  4  2  0  0  0  0
  2  5  1  0  0  0  0
  5  6  1  0  0  0  0
  5 30  2  0  0  0  0
  6  7  2  0  0  0  0
  6 34  1  0  0  0  0
  7  8  1  0  0  0  0
  7 35  1  0  0  0  0
  8  9  1  0  0  0  0
  8 29  2  0  0  0  0
  9 10  2  0  0  0  0
  9 11  1  0  0  0  0
 11 12  1  0  0  0  0
 11 28  1  0  0  0  0
 12 13  1  0  0  0  0
 12 19  2  0  0  0  0
 13 14  2  0  0  0  0
 13 36  1  0  0  0  0
 14 15  1  0  0  0  0
 14 16  1  0  0  0  0
 15 37  1  0  0  0  0
 16 17  1  0  0  0  0
 16 18  2  0  0  0  0
 17 38  1  0  0  0  0
 18 19  1  0  0  0  0
 18 39  1  0  0  0  0
 19 20  1  0  0  0  0
 20 21  1  0  0  0  0
 20 28  2  0  0  0  0
 21 22  1  0  0  0  0
 21 23  2  0  0  0  0
 23 24  1  0  0  0  0
 23 40  1  0  0  0  0
 24 25  1  0  0  0  0
 24 26  2  0  0  0  0
 25 41  1  0  0  0  0
 26 27  1  0  0  0  0
 26 28  1  0  0  0  0
 27 42  1  0  0  0  0
 29 30  1  0  0  0  0
 29 43  1  0  0  0  0
 30 44  1  0  0  0  0
M  END
$$$$
