
 OpenBabel01112422183D

 68 75  0  0  1  0  0  0  0  0999 V2000
    1.2476    0.5399   -3.3693 C   0  0  0  0  0  0  0  0  0  0  0  0
    1.5151    1.3285   -2.2037 O   0  0  0  0  0  0  0  0  0  0  0  0
    1.9942    0.5681   -1.0945 C   0  0  1  0  0  0  0  0  0  0  0  0
    2.5700    1.5275    0.0649 C   0  0  1  0  0  0  0  0  0  0  0  0
    3.6974    2.5980   -0.2426 N   0  3  0  0  0  0  0  0  0  0  0  0
    3.2041    3.7241   -1.1536 C   0  0  0  0  0  0  0  0  0  0  0  0
    4.1657    3.2455    1.0982 C   0  0  0  0  0  0  0  0  0  0  0  0
    4.9384    1.9562   -0.8482 C   0  0  0  0  0  0  0  0  0  0  0  0
    1.4930    2.2281    0.8949 C   0  0  0  0  0  0  0  0  0  0  0  0
    0.1592    1.5940    0.7148 C   0  0  2  0  0  0  0  0  0  0  0  0
    0.4458    0.1997    0.8344 O   0  0  0  0  0  0  0  0  0  0  0  0
    0.9128   -0.4126   -0.3795 C   0  0  2  0  0  0  0  0  0  0  0  0
    1.7623   -1.6013    0.1603 C   0  0  0  0  0  0  0  0  0  0  0  0
   -0.3454   -0.8764   -1.0311 N   0  0  0  0  0  0  0  0  0  0  0  0
   -0.8232   -2.2299   -0.8019 C   0  0  0  0  0  0  0  0  0  0  0  0
   -0.2567   -3.4675   -1.1372 C   0  0  0  0  0  0  0  0  0  0  0  0
   -0.5776   -4.5737   -0.3314 C   0  0  0  0  0  0  0  0  0  0  0  0
   -1.3988   -4.4484    0.7846 C   0  0  0  0  0  0  0  0  0  0  0  0
   -2.0977   -3.2714    1.0017 C   0  0  0  0  0  0  0  0  0  0  0  0
   -1.9252   -2.1883    0.1240 C   0  0  0  0  0  0  0  0  0  0  0  0
   -2.5626   -0.9597   -0.0801 C   0  0  0  0  0  0  0  0  0  0  0  0
   -3.7094   -0.5604    0.6433 C   0  0  0  0  0  0  0  0  0  0  0  0
   -3.9800    0.8181    0.5587 C   0  0  0  0  0  0  0  0  0  0  0  0
   -2.9334    1.5140   -0.0276 C   0  0  0  0  0  0  0  0  0  0  0  0
   -2.5738    2.7535    0.5150 C   0  0  0  0  0  0  0  0  0  0  0  0
   -3.0664    3.6518    1.4510 C   0  0  0  0  0  0  0  0  0  0  0  0
   -3.2276    4.9187    0.9246 C   0  0  0  0  0  0  0  0  0  0  0  0
   -2.7233    5.2130   -0.3500 C   0  0  0  0  0  0  0  0  0  0  0  0
   -1.7803    4.3678   -0.9955 C   0  0  0  0  0  0  0  0  0  0  0  0
   -1.5006    3.1701   -0.3226 C   0  0  0  0  0  0  0  0  0  0  0  0
   -0.6729    1.9873   -0.4700 N   0  0  0  0  0  0  0  0  0  0  0  0
   -1.7321    1.1235   -0.6424 C   0  0  0  0  0  0  0  0  0  0  0  0
   -1.5564   -0.2509   -0.7590 C   0  0  0  0  0  0  0  0  0  0  0  0
   -5.0697    1.1763    1.4006 C   0  0  0  0  0  0  0  0  0  0  0  0
   -5.6435    2.2269    1.6560 O   0  0  0  0  0  0  0  0  0  0  0  0
   -5.3260    0.0003    2.0861 N   0  0  0  0  0  0  0  0  0  0  0  0
   -4.5479   -1.1577    1.6621 C   0  0  0  0  0  0  0  0  0  0  0  0
    1.3335    1.1831   -4.2502 H   0  0  0  0  0  0  0  0  0  0  0  0
    0.2268    0.1547   -3.3405 H   0  0  0  0  0  0  0  0  0  0  0  0
    1.9565   -0.2886   -3.4817 H   0  0  0  0  0  0  0  0  0  0  0  0
    2.8367   -0.0339   -1.4652 H   0  0  0  0  0  0  0  0  0  0  0  0
    3.0998    0.8416    0.7401 H   0  0  0  0  0  0  0  0  0  0  0  0
    2.6386    3.3067   -1.9820 H   0  0  0  0  0  0  0  0  0  0  0  0
    4.0760    4.2654   -1.5310 H   0  0  0  0  0  0  0  0  0  0  0  0
    2.5823    4.4101   -0.5718 H   0  0  0  0  0  0  0  0  0  0  0  0
    4.9575    3.9670    0.8816 H   0  0  0  0  0  0  0  0  0  0  0  0
    3.3322    3.7773    1.5666 H   0  0  0  0  0  0  0  0  0  0  0  0
    4.5235    2.4484    1.7564 H   0  0  0  0  0  0  0  0  0  0  0  0
    5.1565    1.0333   -0.3039 H   0  0  0  0  0  0  0  0  0  0  0  0
    4.7557    1.7635   -1.9056 H   0  0  0  0  0  0  0  0  0  0  0  0
    5.7765    2.6545   -0.7324 H   0  0  0  0  0  0  0  0  0  0  0  0
    1.4202    3.3081    0.8011 H   0  0  0  0  0  0  0  0  0  0  0  0
    1.7745    2.0211    1.9428 H   0  0  0  0  0  0  0  0  0  0  0  0
   -0.4365    1.8477    1.5987 H   0  0  0  0  0  0  0  0  0  0  0  0
    2.1286   -2.2417   -0.6522 H   0  0  0  0  0  0  0  0  0  0  0  0
    1.1931   -2.2091    0.8809 H   0  0  0  0  0  0  0  0  0  0  0  0
    2.6362   -1.2618    0.7248 H   0  0  0  0  0  0  0  0  0  0  0  0
    0.4641   -3.5790   -1.9393 H   0  0  0  0  0  0  0  0  0  0  0  0
   -0.1222   -5.5417   -0.5309 H   0  0  0  0  0  0  0  0  0  0  0  0
   -1.5288   -5.2742    1.4820 H   0  0  0  0  0  0  0  0  0  0  0  0
   -2.7440   -3.1877    1.8675 H   0  0  0  0  0  0  0  0  0  0  0  0
   -3.6188    3.3410    2.3300 H   0  0  0  0  0  0  0  0  0  0  0  0
   -3.8957    5.5990    1.4496 H   0  0  0  0  0  0  0  0  0  0  0  0
   -3.1218    6.0933   -0.8509 H   0  0  0  0  0  0  0  0  0  0  0  0
   -1.4354    4.5839   -2.0005 H   0  0  0  0  0  0  0  0  0  0  0  0
   -5.5901    0.1474    3.0515 H   0  0  0  0  0  0  0  0  0  0  0  0
   -3.9620   -1.4902    2.5201 H   0  0  0  0  0  0  0  0  0  0  0  0
   -5.2186   -1.9249    1.2753 H   0  0  0  0  0  0  0  0  0  0  0  0
  1  2  1  0  0  0  0
  1 38  1  0  0  0  0
  1 39  1  0  0  0  0
  1 40  1  0  0  0  0
  3  4  1  0  0  0  0
  3 12  1  0  0  0  0
  3  2  1  0  0  0  0
  3 41  1  6  0  0  0
  4  9  1  0  0  0  0
  4  5  1  0  0  0  0
  4 42  1  1  0  0  0
  5  6  1  0  0  0  0
  5  7  1  0  0  0  0
  5  8  1  0  0  0  0
  6 43  1  0  0  0  0
  6 44  1  0  0  0  0
  6 45  1  0  0  0  0
  7 46  1  0  0  0  0
  7 47  1  0  0  0  0
  7 48  1  0  0  0  0
  8 49  1  0  0  0  0
  8 50  1  0  0  0  0
  8 51  1  0  0  0  0
  9 10  1  0  0  0  0
  9 52  1  0  0  0  0
  9 53  1  0  0  0  0
 10 11  1  0  0  0  0
 10 31  1  0  0  0  0
 10 54  1  1  0  0  0
 11 12  1  0  0  0  0
 12 14  1  0  0  0  0
 12 13  1  1  0  0  0
 13 55  1  0  0  0  0
 13 56  1  0  0  0  0
 13 57  1  0  0  0  0
 14 15  1  0  0  0  0
 14 33  1  0  0  0  0
 15 16  1  0  0  0  0
 15 20  2  0  0  0  0
 16 17  2  0  0  0  0
 16 58  1  0  0  0  0
 17 18  1  0  0  0  0
 17 59  1  0  0  0  0
 18 19  2  0  0  0  0
 18 60  1  0  0  0  0
 19 20  1  0  0  0  0
 19 61  1  0  0  0  0
 20 21  1  0  0  0  0
 21 22  1  0  0  0  0
 21 33  2  0  0  0  0
 22 23  2  0  0  0  0
 22 37  1  0  0  0  0
 23 24  1  0  0  0  0
 23 34  1  0  0  0  0
 24 25  1  0  0  0  0
 24 32  2  0  0  0  0
 25 26  1  0  0  0  0
 25 30  2  0  0  0  0
 26 27  2  0  0  0  0
 26 62  1  0  0  0  0
 27 28  1  0  0  0  0
 27 63  1  0  0  0  0
 28 29  2  0  0  0  0
 28 64  1  0  0  0  0
 29 30  1  0  0  0  0
 29 65  1  0  0  0  0
 30 31  1  0  0  0  0
 31 32  1  0  0  0  0
 32 33  1  0  0  0  0
 34 36  1  0  0  0  0
 34 35  2  0  0  0  0
 36 37  1  0  0  0  0
 36 66  1  0  0  0  0
 37 67  1  0  0  0  0
 37 68  1  0  0  0  0
M  CHG  1   5   1
M  END
$$$$
