
 OpenBabel01112422313D

 47 53  0  0  1  0  0  0  0  0999 V2000
    2.3883    0.9710    0.6209 O   0  0  0  0  0  0  0  0  0  0  0  0
    3.0497    0.2757   -0.1408 C   0  0  0  0  0  0  0  0  0  0  0  0
    3.8560   -0.7525    0.3468 N   0  0  0  0  0  0  0  0  0  0  0  0
    4.2715   -1.6386   -0.5895 C   0  0  0  0  0  0  0  0  0  0  0  0
    4.5392   -2.8133   -0.3730 O   0  0  0  0  0  0  0  0  0  0  0  0
    4.1471   -0.8657   -1.7738 C   0  0  0  0  0  0  0  0  0  0  0  0
    3.2593    0.2401   -1.5578 C   0  0  0  0  0  0  0  0  0  0  0  0
    2.7001    0.8951   -2.7463 C   0  0  0  0  0  0  0  0  0  0  0  0
    1.6644    1.8284   -3.0766 C   0  0  0  0  0  0  0  0  0  0  0  0
    0.8402    2.8708   -2.5607 C   0  0  0  0  0  0  0  0  0  0  0  0
   -0.1922    3.4361   -3.3780 C   0  0  0  0  0  0  0  0  0  0  0  0
   -0.4545    2.9572   -4.6540 C   0  0  0  0  0  0  0  0  0  0  0  0
   -1.4850    3.4228   -5.3753 F   0  0  0  0  0  0  0  0  0  0  0  0
    0.3837    2.0330   -5.2266 C   0  0  0  0  0  0  0  0  0  0  0  0
    1.4458    1.5629   -4.4582 C   0  0  0  0  0  0  0  0  0  0  0  0
    2.4573    0.8039   -4.9298 N   0  0  0  0  0  0  0  0  0  0  0  0
    3.2841    0.5023   -3.9166 C   0  0  0  0  0  0  0  0  0  0  0  0
    4.4334   -0.2151   -4.0177 C   0  0  0  0  0  0  0  0  0  0  0  0
    4.8435   -0.9715   -2.9843 C   0  0  0  0  0  0  0  0  0  0  0  0
    5.9337   -1.7655   -3.2677 C   0  0  0  0  0  0  0  0  0  0  0  0
    6.7569   -2.7247   -2.6538 C   0  0  0  0  0  0  0  0  0  0  0  0
    7.8212   -3.2670   -3.3884 C   0  0  0  0  0  0  0  0  0  0  0  0
    8.0626   -2.8835   -4.7153 C   0  0  0  0  0  0  0  0  0  0  0  0
    7.2641   -1.9258   -5.3352 C   0  0  0  0  0  0  0  0  0  0  0  0
    6.2224   -1.3891   -4.5843 C   0  0  0  0  0  0  0  0  0  0  0  0
    5.3244   -0.4121   -5.0176 N   0  0  0  0  0  0  0  0  0  0  0  0
    5.4411    0.1832   -6.3511 C   0  0  3  0  0  0  0  0  0  0  0  0
    5.1340    1.6983   -6.4743 C   0  0  0  0  0  0  0  0  0  0  0  0
    6.0745    2.5241   -5.7993 O   0  0  0  0  0  0  0  0  0  0  0  0
    6.8650   -0.0501   -6.9282 C   0  0  0  0  0  0  0  0  0  0  0  0
    7.3943   -1.4839   -6.7579 C   0  0  0  0  0  0  0  0  0  0  0  0
    3.8851   -1.0310    1.3126 H   0  0  0  0  0  0  0  0  0  0  0  0
    1.0206    3.3246   -1.5882 H   0  0  0  0  0  0  0  0  0  0  0  0
   -0.8036    4.2663   -3.0302 H   0  0  0  0  0  0  0  0  0  0  0  0
    0.2442    1.7061   -6.2534 H   0  0  0  0  0  0  0  0  0  0  0  0
    2.5657    0.5047   -5.8852 H   0  0  0  0  0  0  0  0  0  0  0  0
    6.5727   -3.0675   -1.6406 H   0  0  0  0  0  0  0  0  0  0  0  0
    8.4623   -4.0051   -2.9126 H   0  0  0  0  0  0  0  0  0  0  0  0
    8.9060   -3.3240   -5.2482 H   0  0  0  0  0  0  0  0  0  0  0  0
    4.7070   -0.3661   -6.9551 H   0  0  0  0  0  0  0  0  0  0  0  0
    4.1418    1.9940   -6.1421 H   0  0  0  0  0  0  0  0  0  0  0  0
    5.1724    1.9737   -7.5353 H   0  0  0  0  0  0  0  0  0  0  0  0
    5.9800    2.3605   -4.8432 H   0  0  0  0  0  0  0  0  0  0  0  0
    7.5694    0.6297   -6.4291 H   0  0  0  0  0  0  0  0  0  0  0  0
    6.8661    0.2168   -7.9915 H   0  0  0  0  0  0  0  0  0  0  0  0
    8.4401   -1.5155   -7.0747 H   0  0  0  0  0  0  0  0  0  0  0  0
    6.8155   -2.1665   -7.3900 H   0  0  0  0  0  0  0  0  0  0  0  0
  1  2  2  0  0  0  0
  2  3  1  0  0  0  0
  2  7  1  0  0  0  0
  3  4  1  0  0  0  0
  3 32  1  0  0  0  0
  4  5  2  0  0  0  0
  4  6  1  0  0  0  0
  6  7  1  0  0  0  0
  6 19  2  0  0  0  0
  7  8  2  0  0  0  0
  8  9  1  0  0  0  0
  8 17  1  0  0  0  0
  9 10  1  0  0  0  0
  9 15  2  0  0  0  0
 10 11  2  0  0  0  0
 10 33  1  0  0  0  0
 11 12  1  0  0  0  0
 11 34  1  0  0  0  0
 12 13  1  0  0  0  0
 12 14  2  0  0  0  0
 14 15  1  0  0  0  0
 14 35  1  0  0  0  0
 15 16  1  0  0  0  0
 16 17  1  0  0  0  0
 16 36  1  0  0  0  0
 17 18  2  0  0  0  0
 18 19  1  0  0  0  0
 18 26  1  0  0  0  0
 19 20  1  0  0  0  0
 20 21  1  0  0  0  0
 20 25  2  0  0  0  0
 21 22  2  0  0  0  0
 21 37  1  0  0  0  0
 22 23  1  0  0  0  0
 22 38  1  0  0  0  0
 23 24  2  0  0  0  0
 23 39  1  0  0  0  0
 24 25  1  0  0  0  0
 24 31  1  0  0  0  0
 25 26  1  0  0  0  0
 26 27  1  0  0  0  0
 27 28  1  0  0  0  0
 27 30  1  0  0  0  0
 27 40  1  0  0  0  0
 28 29  1  0  0  0  0
 28 41  1  0  0  0  0
 28 42  1  0  0  0  0
 29 43  1  0  0  0  0
 30 31  1  0  0  0  0
 30 44  1  0  0  0  0
 30 45  1  0  0  0  0
 31 46  1  0  0  0  0
 31 47  1  0  0  0  0
M  END
$$$$
