
 OpenBabel01112422153D

 50 55  0  0  1  0  0  0  0  0999 V2000
    1.6271    0.0393    0.0839 C   0  0  0  0  0  0  0  0  0  0  0  0
    3.0694   -0.0323    0.1613 N   0  0  0  0  0  0  0  0  0  0  0  0
    3.8791    1.1124    0.1070 C   0  0  0  0  0  0  0  0  0  0  0  0
    3.5169    2.4760    0.1323 C   0  0  0  0  0  0  0  0  0  0  0  0
    4.5222    3.4370    0.0432 C   0  0  0  0  0  0  0  0  0  0  0  0
    5.8524    3.0608   -0.0568 C   0  0  0  0  0  0  0  0  0  0  0  0
    6.2106    1.7084   -0.1000 C   0  0  0  0  0  0  0  0  0  0  0  0
    5.2202    0.7103   -0.0253 C   0  0  0  0  0  0  0  0  0  0  0  0
    5.1300   -0.6754   -0.0945 C   0  0  0  0  0  0  0  0  0  0  0  0
    6.2147   -1.5719   -0.2904 C   0  0  0  0  0  0  0  0  0  0  0  0
    5.9132   -2.9326   -0.5631 C   0  0  0  0  0  0  0  0  0  0  0  0
    4.5674   -3.3607   -0.4816 C   0  0  0  0  0  0  0  0  0  0  0  0
    4.0978   -4.6475   -0.6612 C   0  0  0  0  0  0  0  0  0  0  0  0
    4.2554   -5.7644   -1.4926 C   0  0  0  0  0  0  0  0  0  0  0  0
    3.6610   -6.9669   -1.0970 C   0  0  0  0  0  0  0  0  0  0  0  0
    3.1358   -7.0907    0.1853 C   0  0  0  0  0  0  0  0  0  0  0  0
    2.9032   -5.9595    0.9689 C   0  0  0  0  0  0  0  0  0  0  0  0
    3.1556   -4.7215    0.3716 C   0  0  0  0  0  0  0  0  0  0  0  0
    2.6544   -3.4230    0.5037 N   0  0  0  0  0  0  0  0  0  0  0  0
    1.2631   -3.0382    0.5679 C   0  0  0  0  0  0  0  0  0  0  0  0
    0.0952   -3.9616    0.9142 C   0  0  3  0  0  0  0  0  0  0  0  0
   -0.1255   -4.9651   -0.0715 O   0  0  0  0  0  0  0  0  0  0  0  0
    0.1301   -4.5001    2.3435 C   0  0  0  0  0  0  0  0  0  0  0  0
   -1.1052   -5.1085    2.7083 O   0  0  0  0  0  0  0  0  0  0  0  0
    3.6469   -2.5375    0.0892 C   0  0  0  0  0  0  0  0  0  0  0  0
    3.8612   -1.1624    0.0810 C   0  0  0  0  0  0  0  0  0  0  0  0
    7.1366   -3.6666   -0.6669 C   0  0  0  0  0  0  0  0  0  0  0  0
    7.4057   -4.8520   -0.7635 O   0  0  0  0  0  0  0  0  0  0  0  0
    8.0932   -2.6908   -0.5276 N   0  0  0  0  0  0  0  0  0  0  0  0
    7.6421   -1.4342   -0.2345 C   0  0  0  0  0  0  0  0  0  0  0  0
    8.4132   -0.5260    0.0711 O   0  0  0  0  0  0  0  0  0  0  0  0
    1.2984    1.0520   -0.1531 H   0  0  0  0  0  0  0  0  0  0  0  0
    1.2041   -0.2217    1.0562 H   0  0  0  0  0  0  0  0  0  0  0  0
    1.2902   -0.6017   -0.7337 H   0  0  0  0  0  0  0  0  0  0  0  0
    2.4829    2.7960    0.2088 H   0  0  0  0  0  0  0  0  0  0  0  0
    4.2576    4.4918    0.0527 H   0  0  0  0  0  0  0  0  0  0  0  0
    6.6286    3.8194   -0.1124 H   0  0  0  0  0  0  0  0  0  0  0  0
    7.2586    1.4585   -0.1953 H   0  0  0  0  0  0  0  0  0  0  0  0
    4.7396   -5.6753   -2.4596 H   0  0  0  0  0  0  0  0  0  0  0  0
    3.6688   -7.8238   -1.7645 H   0  0  0  0  0  0  0  0  0  0  0  0
    2.8693   -8.0725    0.5697 H   0  0  0  0  0  0  0  0  0  0  0  0
    2.5427   -6.0651    1.9824 H   0  0  0  0  0  0  0  0  0  0  0  0
    1.0600   -2.6706   -0.4463 H   0  0  0  0  0  0  0  0  0  0  0  0
    1.2311   -2.2206    1.2855 H   0  0  0  0  0  0  0  0  0  0  0  0
   -0.8003   -3.3300    0.8423 H   0  0  0  0  0  0  0  0  0  0  0  0
    0.5569   -5.6533    0.0190 H   0  0  0  0  0  0  0  0  0  0  0  0
    0.3413   -3.6977    3.0563 H   0  0  0  0  0  0  0  0  0  0  0  0
    0.8764   -5.2716    2.4709 H   0  0  0  0  0  0  0  0  0  0  0  0
   -1.8285   -4.5304    2.4139 H   0  0  0  0  0  0  0  0  0  0  0  0
    9.0656   -2.9261   -0.4167 H   0  0  0  0  0  0  0  0  0  0  0  0
  1  2  1  0  0  0  0
  1 32  1  0  0  0  0
  1 33  1  0  0  0  0
  1 34  1  0  0  0  0
  2  3  1  0  0  0  0
  2 26  1  0  0  0  0
  3  4  1  0  0  0  0
  3  8  2  0  0  0  0
  4  5  2  0  0  0  0
  4 35  1  0  0  0  0
  5  6  1  0  0  0  0
  5 36  1  0  0  0  0
  6  7  2  0  0  0  0
  6 37  1  0  0  0  0
  7  8  1  0  0  0  0
  7 38  1  0  0  0  0
  8  9  1  0  0  0  0
  9 10  1  0  0  0  0
  9 26  2  0  0  0  0
 10 11  2  0  0  0  0
 10 30  1  0  0  0  0
 11 12  1  0  0  0  0
 11 27  1  0  0  0  0
 12 13  1  0  0  0  0
 12 25  2  0  0  0  0
 13 14  1  0  0  0  0
 13 18  2  0  0  0  0
 14 15  2  0  0  0  0
 14 39  1  0  0  0  0
 15 16  1  0  0  0  0
 15 40  1  0  0  0  0
 16 17  2  0  0  0  0
 16 41  1  0  0  0  0
 17 18  1  0  0  0  0
 17 42  1  0  0  0  0
 18 19  1  0  0  0  0
 19 20  1  0  0  0  0
 19 25  1  0  0  0  0
 20 21  1  0  0  0  0
 20 43  1  0  0  0  0
 20 44  1  0  0  0  0
 21 22  1  0  0  0  0
 21 23  1  0  0  0  0
 21 45  1  0  0  0  0
 22 46  1  0  0  0  0
 23 24  1  0  0  0  0
 23 47  1  0  0  0  0
 23 48  1  0  0  0  0
 24 49  1  0  0  0  0
 25 26  1  0  0  0  0
 27 28  2  0  0  0  0
 27 29  1  0  0  0  0
 29 30  1  0  0  0  0
 29 50  1  0  0  0  0
 30 31  2  0  0  0  0
M  END
$$$$
