
 OpenBabel01112422283D

 65 69  0  0  1  0  0  0  0  0999 V2000
    3.2998   -2.5386    0.6593 O   0  0  0  0  0  0  0  0  0  0  0  0
    3.4377   -1.3610    0.3744 C   0  0  0  0  0  0  0  0  0  0  0  0
    3.0098   -0.8137   -0.8149 N   0  0  0  0  0  0  0  0  0  0  0  0
    2.3139   -1.6152   -1.8206 C   0  0  3  0  0  0  0  0  0  0  0  0
    1.9283   -0.7693   -3.0592 C   0  0  3  0  0  0  0  0  0  0  0  0
    3.1731   -0.0829   -3.6524 C   0  0  0  0  0  0  0  0  0  0  0  0
    3.9542   -1.2558   -4.2599 C   0  0  0  0  0  0  0  0  0  0  0  0
    3.0587   -2.4713   -3.9576 C   0  0  3  0  0  0  0  0  0  0  0  0
    1.6615   -1.8594   -4.0966 C   0  0  0  0  0  0  0  0  0  0  0  0
    3.1496   -2.7868   -2.4490 C   0  0  3  0  0  0  0  0  0  0  0  0
    2.5230   -4.0512   -2.1593 O   0  0  0  0  0  0  0  0  0  0  0  0
    3.3554   -4.9909   -1.6286 C   0  0  0  0  0  0  0  0  0  0  0  0
    4.4062   -5.3733   -2.1282 O   0  0  0  0  0  0  0  0  0  0  0  0
    2.8717   -5.4445   -0.3017 C   0  0  0  0  0  0  0  0  0  0  0  0
    3.6171   -6.3683    0.4432 C   0  0  0  0  0  0  0  0  0  0  0  0
    3.2014   -6.7164    1.7366 C   0  0  0  0  0  0  0  0  0  0  0  0
    3.9045   -7.6847    2.4030 O   0  0  0  0  0  0  0  0  0  0  0  0
    2.0669   -6.1127    2.3226 C   0  0  0  0  0  0  0  0  0  0  0  0
    1.6361   -6.4672    3.7150 C   0  0  0  0  0  0  0  0  0  0  0  0
    2.4745   -6.7321    4.5722 O   0  0  0  0  0  0  0  0  0  0  0  0
    0.2150   -6.4059    4.1890 C   0  0  0  0  0  0  0  0  0  0  0  0
   -0.0327   -5.9829    5.5278 C   0  0  0  0  0  0  0  0  0  0  0  0
    0.9202   -5.5893    6.4327 O   0  0  0  0  0  0  0  0  0  0  0  0
   -1.3336   -5.9301    6.0317 C   0  0  0  0  0  0  0  0  0  0  0  0
   -2.4059   -6.2257    5.2084 C   0  0  0  0  0  0  0  0  0  0  0  0
   -2.1990   -6.5682    3.8756 C   0  0  0  0  0  0  0  0  0  0  0  0
   -0.9110   -6.6910    3.3550 C   0  0  0  0  0  0  0  0  0  0  0  0
   -0.8143   -7.1266    1.9095 C   0  0  0  0  0  0  0  0  0  0  0  0
    0.1022   -7.7502    1.4857 O   0  0  0  0  0  0  0  0  0  0  0  0
   -1.7762   -6.6463    1.0721 O   0  0  0  0  0  0  0  0  0  0  0  0
    1.3559   -5.1751    1.5550 C   0  0  0  0  0  0  0  0  0  0  0  0
    0.2282   -4.5008    1.9484 O   0  0  0  0  0  0  0  0  0  0  0  0
    1.7262   -4.8798    0.2516 C   0  0  0  0  0  0  0  0  0  0  0  0
    4.1244   -0.4599    1.3324 C   0  0  0  0  0  0  0  0  0  0  0  0
    5.0990   -1.0048    2.1827 C   0  0  0  0  0  0  0  0  0  0  0  0
    5.7146   -0.2059    3.1504 C   0  0  0  0  0  0  0  0  0  0  0  0
    5.3415    1.1290    3.2680 C   0  0  0  0  0  0  0  0  0  0  0  0
    5.8961    1.9463    4.2076 O   0  0  0  0  0  0  0  0  0  0  0  0
    4.3715    1.6761    2.4337 C   0  0  0  0  0  0  0  0  0  0  0  0
    3.7637    0.8841    1.4578 C   0  0  0  0  0  0  0  0  0  0  0  0
    3.1397    0.1686   -0.9780 H   0  0  0  0  0  0  0  0  0  0  0  0
    1.4020   -1.9999   -1.3455 H   0  0  0  0  0  0  0  0  0  0  0  0
    1.0987   -0.0792   -2.8812 H   0  0  0  0  0  0  0  0  0  0  0  0
    3.7684    0.4659   -2.9176 H   0  0  0  0  0  0  0  0  0  0  0  0
    2.8867    0.6302   -4.4335 H   0  0  0  0  0  0  0  0  0  0  0  0
    4.9543   -1.3514   -3.8248 H   0  0  0  0  0  0  0  0  0  0  0  0
    4.0633   -1.1073   -5.3389 H   0  0  0  0  0  0  0  0  0  0  0  0
    3.2397   -3.3336   -4.6030 H   0  0  0  0  0  0  0  0  0  0  0  0
    0.8546   -2.5428   -3.8142 H   0  0  0  0  0  0  0  0  0  0  0  0
    1.4672   -1.4594   -5.0979 H   0  0  0  0  0  0  0  0  0  0  0  0
    4.1880   -2.7909   -2.0966 H   0  0  0  0  0  0  0  0  0  0  0  0
    4.5128   -6.8078    0.0120 H   0  0  0  0  0  0  0  0  0  0  0  0
    4.7939   -7.7608    2.0222 H   0  0  0  0  0  0  0  0  0  0  0  0
    1.8180   -5.7182    6.0540 H   0  0  0  0  0  0  0  0  0  0  0  0
   -1.5072   -5.6838    7.0779 H   0  0  0  0  0  0  0  0  0  0  0  0
   -3.4195   -6.2237    5.6030 H   0  0  0  0  0  0  0  0  0  0  0  0
   -3.0656   -6.7910    3.2690 H   0  0  0  0  0  0  0  0  0  0  0  0
   -2.6507   -6.4456    1.4288 H   0  0  0  0  0  0  0  0  0  0  0  0
    0.0055   -4.7154    2.8588 H   0  0  0  0  0  0  0  0  0  0  0  0
    1.1439   -4.1491   -0.2986 H   0  0  0  0  0  0  0  0  0  0  0  0
    5.3657   -2.0573    2.1023 H   0  0  0  0  0  0  0  0  0  0  0  0
    6.4603   -0.6445    3.8066 H   0  0  0  0  0  0  0  0  0  0  0  0
    6.5512    1.4420    4.7181 H   0  0  0  0  0  0  0  0  0  0  0  0
    4.0723    2.7127    2.5611 H   0  0  0  0  0  0  0  0  0  0  0  0
    2.9785    1.3139    0.8451 H   0  0  0  0  0  0  0  0  0  0  0  0
  1  2  2  0  0  0  0
  2  3  1  0  0  0  0
  2 34  1  0  0  0  0
  3  4  1  0  0  0  0
  3 41  1  0  0  0  0
  4  5  1  0  0  0  0
  4 10  1  0  0  0  0
  4 42  1  0  0  0  0
  5  6  1  0  0  0  0
  5  9  1  0  0  0  0
  5 43  1  0  0  0  0
  6  7  1  0  0  0  0
  6 44  1  0  0  0  0
  6 45  1  0  0  0  0
  7  8  1  0  0  0  0
  7 46  1  0  0  0  0
  7 47  1  0  0  0  0
  8  9  1  0  0  0  0
  8 10  1  0  0  0  0
  8 48  1  0  0  0  0
  9 49  1  0  0  0  0
  9 50  1  0  0  0  0
 10 11  1  0  0  0  0
 10 51  1  0  0  0  0
 11 12  1  0  0  0  0
 12 13  2  0  0  0  0
 12 14  1  0  0  0  0
 14 15  1  0  0  0  0
 14 33  2  0  0  0  0
 15 16  2  0  0  0  0
 15 52  1  0  0  0  0
 16 17  1  0  0  0  0
 16 18  1  0  0  0  0
 17 53  1  0  0  0  0
 18 19  1  0  0  0  0
 18 31  2  0  0  0  0
 19 20  2  0  0  0  0
 19 21  1  0  0  0  0
 21 22  1  0  0  0  0
 21 27  2  0  0  0  0
 22 23  1  0  0  0  0
 22 24  2  0  0  0  0
 23 54  1  0  0  0  0
 24 25  1  0  0  0  0
 24 55  1  0  0  0  0
 25 26  2  0  0  0  0
 25 56  1  0  0  0  0
 26 27  1  0  0  0  0
 26 57  1  0  0  0  0
 27 28  1  0  0  0  0
 28 29  2  0  0  0  0
 28 30  1  0  0  0  0
 30 58  1  0  0  0  0
 31 32  1  0  0  0  0
 31 33  1  0  0  0  0
 32 59  1  0  0  0  0
 33 60  1  0  0  0  0
 34 35  1  0  0  0  0
 34 40  2  0  0  0  0
 35 36  2  0  0  0  0
 35 61  1  0  0  0  0
 36 37  1  0  0  0  0
 36 62  1  0  0  0  0
 37 38  1  0  0  0  0
 37 39  2  0  0  0  0
 38 63  1  0  0  0  0
 39 40  1  0  0  0  0
 39 64  1  0  0  0  0
 40 65  1  0  0  0  0
M  END
$$$$
