
 OpenBabel01112422483D

 41 43  0  0  0  0  0  0  0  0999 V2000
    3.6162    0.1385   -0.9814 C   0  0  0  0  0  0  0  0  0  0  0  0
    2.5139   -0.0096    0.0501 C   0  0  0  0  0  0  0  0  0  0  0  0
    2.9281   -0.8066    1.1812 N   0  0  0  0  0  0  0  0  0  0  0  0
    2.8192   -2.1669    1.2693 C   0  0  0  0  0  0  0  0  0  0  0  0
    3.2139   -2.6099    2.4394 N   0  0  0  0  0  0  0  0  0  0  0  0
    3.5902   -1.4810    3.1409 C   0  0  0  0  0  0  0  0  0  0  0  0
    4.0586   -1.2862    4.4513 C   0  0  0  0  0  0  0  0  0  0  0  0
    4.2580   -2.3348    5.3573 N   0  0  0  0  0  0  0  0  0  0  0  0
    4.7583   -3.6225    5.1027 C   0  0  0  0  0  0  0  0  0  0  0  0
    4.3301   -4.6954    5.8935 C   0  0  0  0  0  0  0  0  0  0  0  0
    4.7347   -6.0041    5.6094 C   0  0  0  0  0  0  0  0  0  0  0  0
    5.5843   -6.2556    4.5346 C   0  0  0  0  0  0  0  0  0  0  0  0
    6.0207   -5.1979    3.7444 C   0  0  0  0  0  0  0  0  0  0  0  0
    7.0704   -5.4982    2.4123 Cl  0  0  0  0  0  0  0  0  0  0  0  0
    5.6084   -3.8943    4.0200 C   0  0  0  0  0  0  0  0  0  0  0  0
    4.2849   -0.0085    4.8591 N   0  0  0  0  0  0  0  0  0  0  0  0
    4.1411    1.0136    3.9871 C   0  0  0  0  0  0  0  0  0  0  0  0
    4.4895    2.2962    4.3771 N   0  0  0  0  0  0  0  0  0  0  0  0
    5.5615    2.4299    5.3584 C   0  0  0  0  0  0  0  0  0  0  0  0
    6.9227    1.9067    4.8522 C   0  0  0  0  0  0  0  0  0  0  0  0
    7.3629    2.5589    3.6104 N   0  0  0  0  0  0  0  0  0  0  0  0
    3.7146    0.9162    2.7156 N   0  0  0  0  0  0  0  0  0  0  0  0
    3.4335   -0.3476    2.3658 C   0  0  0  0  0  0  0  0  0  0  0  0
    3.2587    0.7205   -1.8360 H   0  0  0  0  0  0  0  0  0  0  0  0
    3.9479   -0.8388   -1.3489 H   0  0  0  0  0  0  0  0  0  0  0  0
    4.4867    0.6485   -0.5563 H   0  0  0  0  0  0  0  0  0  0  0  0
    1.6409   -0.5016   -0.3943 H   0  0  0  0  0  0  0  0  0  0  0  0
    2.1886    0.9684    0.4189 H   0  0  0  0  0  0  0  0  0  0  0  0
    2.4427   -2.7830    0.4617 H   0  0  0  0  0  0  0  0  0  0  0  0
    4.2112   -2.0419    6.3226 H   0  0  0  0  0  0  0  0  0  0  0  0
    3.6394   -4.5224    6.7150 H   0  0  0  0  0  0  0  0  0  0  0  0
    4.3705   -6.8282    6.2171 H   0  0  0  0  0  0  0  0  0  0  0  0
    5.8923   -7.2731    4.3100 H   0  0  0  0  0  0  0  0  0  0  0  0
    5.9577   -3.0872    3.3820 H   0  0  0  0  0  0  0  0  0  0  0  0
    4.6091    2.8578    3.5429 H   0  0  0  0  0  0  0  0  0  0  0  0
    5.2925    1.9365    6.2996 H   0  0  0  0  0  0  0  0  0  0  0  0
    5.6632    3.4972    5.5923 H   0  0  0  0  0  0  0  0  0  0  0  0
    6.8811    0.8256    4.6824 H   0  0  0  0  0  0  0  0  0  0  0  0
    7.6776    2.0809    5.6267 H   0  0  0  0  0  0  0  0  0  0  0  0
    6.6953    2.3341    2.8730 H   0  0  0  0  0  0  0  0  0  0  0  0
    8.2458    2.1392    3.3188 H   0  0  0  0  0  0  0  0  0  0  0  0
  1  2  1  0  0  0  0
  1 24  1  0  0  0  0
  1 25  1  0  0  0  0
  1 26  1  0  0  0  0
  2  3  1  0  0  0  0
  2 27  1  0  0  0  0
  2 28  1  0  0  0  0
  3  4  1  0  0  0  0
  3 23  1  0  0  0  0
  4  5  2  0  0  0  0
  4 29  1  0  0  0  0
  5  6  1  0  0  0  0
  6  7  1  0  0  0  0
  6 23  2  0  0  0  0
  7  8  1  0  0  0  0
  7 16  2  0  0  0  0
  8  9  1  0  0  0  0
  8 30  1  0  0  0  0
  9 10  1  0  0  0  0
  9 15  2  0  0  0  0
 10 11  2  0  0  0  0
 10 31  1  0  0  0  0
 11 12  1  0  0  0  0
 11 32  1  0  0  0  0
 12 13  2  0  0  0  0
 12 33  1  0  0  0  0
 13 14  1  0  0  0  0
 13 15  1  0  0  0  0
 15 34  1  0  0  0  0
 16 17  1  0  0  0  0
 17 18  1  0  0  0  0
 17 22  2  0  0  0  0
 18 19  1  0  0  0  0
 18 35  1  0  0  0  0
 19 20  1  0  0  0  0
 19 36  1  0  0  0  0
 19 37  1  0  0  0  0
 20 21  1  0  0  0  0
 20 38  1  0  0  0  0
 20 39  1  0  0  0  0
 21 40  1  0  0  0  0
 21 41  1  0  0  0  0
 22 23  1  0  0  0  0
M  END
$$$$
