
 OpenBabel01112422543D

 53 57  0  0  1  0  0  0  0  0999 V2000
    2.8334   -1.4211    0.9089 N   0  0  0  0  0  0  0  0  0  0  0  0
    2.4982   -0.1823    0.1770 C   0  0  2  0  0  0  0  0  0  0  0  0
    0.9716   -0.1056   -0.0111 C   0  0  0  0  0  0  0  0  0  0  0  0
    0.5292   -1.1702   -0.8659 O   0  0  0  0  0  0  0  0  0  0  0  0
   -0.8052   -1.2043   -1.1508 C   0  0  0  0  0  0  0  0  0  0  0  0
   -1.2406   -2.2189   -1.9905 C   0  0  0  0  0  0  0  0  0  0  0  0
   -2.5233   -2.3779   -2.3877 N   0  0  0  0  0  0  0  0  0  0  0  0
   -3.4146   -1.4665   -1.9262 C   0  0  0  0  0  0  0  0  0  0  0  0
   -3.1085   -0.4043   -1.0718 C   0  0  0  0  0  0  0  0  0  0  0  0
   -4.1182    0.5747   -0.6085 C   0  0  0  0  0  0  0  0  0  0  0  0
   -5.4548    0.2010   -0.3805 C   0  0  0  0  0  0  0  0  0  0  0  0
   -6.4291    1.1102    0.0580 C   0  0  0  0  0  0  0  0  0  0  0  0
   -6.0192    2.4239    0.2856 C   0  0  0  0  0  0  0  0  0  0  0  0
   -6.6995    3.5288    0.7155 N   0  0  0  0  0  0  0  0  0  0  0  0
   -5.9439    4.6338    0.8277 N   0  0  0  0  0  0  0  0  0  0  0  0
   -4.7134    4.2326    0.4461 C   0  0  0  0  0  0  0  0  0  0  0  0
   -3.5190    5.1434    0.4233 C   0  0  0  0  0  0  0  0  0  0  0  0
   -3.7884    6.4170    0.8146 F   0  0  0  0  0  0  0  0  0  0  0  0
   -2.5258    4.6897    1.2392 F   0  0  0  0  0  0  0  0  0  0  0  0
   -2.9727    5.2272   -0.8218 F   0  0  0  0  0  0  0  0  0  0  0  0
   -4.7147    2.8515    0.0890 C   0  0  0  0  0  0  0  0  0  0  0  0
   -3.7610    1.9229   -0.3734 C   0  0  0  0  0  0  0  0  0  0  0  0
   -1.7627   -0.3086   -0.6802 C   0  0  0  0  0  0  0  0  0  0  0  0
    3.2107   -0.0560   -1.1911 C   0  0  0  0  0  0  0  0  0  0  0  0
    4.7032   -0.1164   -1.0876 C   0  0  0  0  0  0  0  0  0  0  0  0
    5.5642    0.9424   -0.8780 C   0  0  0  0  0  0  0  0  0  0  0  0
    6.8389    0.4479   -0.8049 N   0  0  0  0  0  0  0  0  0  0  0  0
    6.8311   -0.9176   -0.9623 C   0  0  0  0  0  0  0  0  0  0  0  0
    7.8860   -1.8381   -0.9383 C   0  0  0  0  0  0  0  0  0  0  0  0
    7.5714   -3.1887   -1.1212 C   0  0  0  0  0  0  0  0  0  0  0  0
    6.2578   -3.5999   -1.3300 C   0  0  0  0  0  0  0  0  0  0  0  0
    5.2166   -2.6660   -1.3581 C   0  0  0  0  0  0  0  0  0  0  0  0
    5.5071   -1.2995   -1.1636 C   0  0  0  0  0  0  0  0  0  0  0  0
    3.8490   -1.4758    1.0125 H   0  0  0  0  0  0  0  0  0  0  0  0
    2.5784   -2.2181    0.3238 H   0  0  0  0  0  0  0  0  0  0  0  0
    2.8033    0.6572    0.8139 H   0  0  0  0  0  0  0  0  0  0  0  0
    0.4830   -0.1882    0.9684 H   0  0  0  0  0  0  0  0  0  0  0  0
    0.7233    0.8637   -0.4623 H   0  0  0  0  0  0  0  0  0  0  0  0
   -0.5430   -2.9544   -2.3817 H   0  0  0  0  0  0  0  0  0  0  0  0
   -4.4246   -1.6231   -2.2963 H   0  0  0  0  0  0  0  0  0  0  0  0
   -5.7675   -0.8320   -0.5294 H   0  0  0  0  0  0  0  0  0  0  0  0
   -7.4540    0.7916    0.2208 H   0  0  0  0  0  0  0  0  0  0  0  0
   -7.6835    3.5933    0.9535 H   0  0  0  0  0  0  0  0  0  0  0  0
   -2.7452    2.2673   -0.5517 H   0  0  0  0  0  0  0  0  0  0  0  0
   -1.4774    0.4779    0.0095 H   0  0  0  0  0  0  0  0  0  0  0  0
    2.9282    0.9000   -1.6530 H   0  0  0  0  0  0  0  0  0  0  0  0
    2.8680   -0.8374   -1.8805 H   0  0  0  0  0  0  0  0  0  0  0  0
    5.3782    2.0020   -0.7627 H   0  0  0  0  0  0  0  0  0  0  0  0
    7.6706    1.0006   -0.6467 H   0  0  0  0  0  0  0  0  0  0  0  0
    8.9110   -1.5225   -0.7766 H   0  0  0  0  0  0  0  0  0  0  0  0
    8.3667   -3.9295   -1.1001 H   0  0  0  0  0  0  0  0  0  0  0  0
    6.0343   -4.6544   -1.4680 H   0  0  0  0  0  0  0  0  0  0  0  0
    4.1964   -2.9979   -1.5192 H   0  0  0  0  0  0  0  0  0  0  0  0
  1 34  1  0  0  0  0
  1 35  1  0  0  0  0
  2 24  1  0  0  0  0
  2  3  1  0  0  0  0
  2  1  1  0  0  0  0
  2 36  1  1  0  0  0
  3  4  1  0  0  0  0
  3 37  1  0  0  0  0
  3 38  1  0  0  0  0
  4  5  1  0  0  0  0
  5  6  1  0  0  0  0
  5 23  2  0  0  0  0
  6  7  2  0  0  0  0
  6 39  1  0  0  0  0
  7  8  1  0  0  0  0
  8  9  2  0  0  0  0
  8 40  1  0  0  0  0
  9 10  1  0  0  0  0
  9 23  1  0  0  0  0
 10 11  1  0  0  0  0
 10 22  2  0  0  0  0
 11 12  2  0  0  0  0
 11 41  1  0  0  0  0
 12 13  1  0  0  0  0
 12 42  1  0  0  0  0
 13 14  1  0  0  0  0
 13 21  2  0  0  0  0
 14 15  1  0  0  0  0
 14 43  1  0  0  0  0
 15 16  2  0  0  0  0
 16 17  1  0  0  0  0
 16 21  1  0  0  0  0
 17 18  1  0  0  0  0
 17 19  1  0  0  0  0
 17 20  1  0  0  0  0
 21 22  1  0  0  0  0
 22 44  1  0  0  0  0
 23 45  1  0  0  0  0
 24 25  1  0  0  0  0
 24 46  1  0  0  0  0
 24 47  1  0  0  0  0
 25 26  2  0  0  0  0
 25 33  1  0  0  0  0
 26 27  1  0  0  0  0
 26 48  1  0  0  0  0
 27 28  1  0  0  0  0
 27 49  1  0  0  0  0
 28 29  1  0  0  0  0
 28 33  2  0  0  0  0
 29 30  2  0  0  0  0
 29 50  1  0  0  0  0
 30 31  1  0  0  0  0
 30 51  1  0  0  0  0
 31 32  2  0  0  0  0
 31 52  1  0  0  0  0
 32 33  1  0  0  0  0
 32 53  1  0  0  0  0
M  END
$$$$
