
 OpenBabel01112422443D

 33 35  0  0  0  0  0  0  0  0999 V2000
   -1.5257    2.3882   -1.0849 N   0  0  0  0  0  0  0  0  0  0  0  0
   -1.0196    1.0871   -1.2229 C   0  0  0  0  0  0  0  0  0  0  0  0
    0.2772    0.8744   -1.6867 C   0  0  0  0  0  0  0  0  0  0  0  0
    0.8277   -0.4087   -1.6920 C   0  0  0  0  0  0  0  0  0  0  0  0
    0.0921   -1.4903   -1.2011 C   0  0  0  0  0  0  0  0  0  0  0  0
   -1.2042   -1.2985   -0.7176 C   0  0  0  0  0  0  0  0  0  0  0  0
   -1.9154   -2.4000   -0.1877 N   0  0  0  0  0  0  0  0  0  0  0  0
   -3.3121   -2.4918   -0.1517 C   0  0  0  0  0  0  0  0  0  0  0  0
   -3.8576   -3.0946    0.9115 N   0  0  0  0  0  0  0  0  0  0  0  0
   -5.2021   -3.1194    0.9620 C   0  0  0  0  0  0  0  0  0  0  0  0
   -6.0144   -2.5630    0.0021 C   0  0  0  0  0  0  0  0  0  0  0  0
   -5.3757   -1.9779   -1.0703 C   0  0  0  0  0  0  0  0  0  0  0  0
   -6.0792   -1.3503   -2.2001 C   0  0  0  0  0  0  0  0  0  0  0  0
   -7.3339   -0.7359   -2.0796 C   0  0  0  0  0  0  0  0  0  0  0  0
   -7.9650   -0.1854   -3.1961 C   0  0  0  0  0  0  0  0  0  0  0  0
   -7.3211   -0.2547   -4.4184 C   0  0  0  0  0  0  0  0  0  0  0  0
   -6.1060   -0.8096   -4.5869 N   0  0  0  0  0  0  0  0  0  0  0  0
   -5.5160   -1.3312   -3.4801 C   0  0  0  0  0  0  0  0  0  0  0  0
   -4.0330   -1.9572   -1.1497 N   0  0  0  0  0  0  0  0  0  0  0  0
   -1.7209    0.0045   -0.6833 C   0  0  0  0  0  0  0  0  0  0  0  0
   -1.1484    3.0386   -1.7667 H   0  0  0  0  0  0  0  0  0  0  0  0
   -2.5414    2.4128   -1.0610 H   0  0  0  0  0  0  0  0  0  0  0  0
    0.8709    1.7090   -2.0496 H   0  0  0  0  0  0  0  0  0  0  0  0
    1.8319   -0.5650   -2.0752 H   0  0  0  0  0  0  0  0  0  0  0  0
    0.5272   -2.4849   -1.2178 H   0  0  0  0  0  0  0  0  0  0  0  0
   -1.5837   -2.6677    0.7308 H   0  0  0  0  0  0  0  0  0  0  0  0
   -5.6229   -3.6172    1.8307 H   0  0  0  0  0  0  0  0  0  0  0  0
   -7.0906   -2.6122    0.0895 H   0  0  0  0  0  0  0  0  0  0  0  0
   -7.8300   -0.6629   -1.1156 H   0  0  0  0  0  0  0  0  0  0  0  0
   -8.9373    0.2871   -3.1124 H   0  0  0  0  0  0  0  0  0  0  0  0
   -7.7761    0.1476   -5.3187 H   0  0  0  0  0  0  0  0  0  0  0  0
   -4.5331   -1.7632   -3.6634 H   0  0  0  0  0  0  0  0  0  0  0  0
   -2.6979    0.1855   -0.2430 H   0  0  0  0  0  0  0  0  0  0  0  0
  1  2  1  0  0  0  0
  1 21  1  0  0  0  0
  1 22  1  0  0  0  0
  2  3  1  0  0  0  0
  2 20  2  0  0  0  0
  3  4  2  0  0  0  0
  3 23  1  0  0  0  0
  4  5  1  0  0  0  0
  4 24  1  0  0  0  0
  5  6  2  0  0  0  0
  5 25  1  0  0  0  0
  6  7  1  0  0  0  0
  6 20  1  0  0  0  0
  7  8  1  0  0  0  0
  7 26  1  0  0  0  0
  8  9  1  0  0  0  0
  8 19  2  0  0  0  0
  9 10  2  0  0  0  0
 10 11  1  0  0  0  0
 10 27  1  0  0  0  0
 11 12  2  0  0  0  0
 11 28  1  0  0  0  0
 12 13  1  0  0  0  0
 12 19  1  0  0  0  0
 13 14  1  0  0  0  0
 13 18  2  0  0  0  0
 14 15  2  0  0  0  0
 14 29  1  0  0  0  0
 15 16  1  0  0  0  0
 15 30  1  0  0  0  0
 16 17  2  0  0  0  0
 16 31  1  0  0  0  0
 17 18  1  0  0  0  0
 18 32  1  0  0  0  0
 20 33  1  0  0  0  0
M  END
$$$$
