
 OpenBabel01112422503D

 54 58  0  0  1  0  0  0  0  0999 V2000
    6.3183   -3.1348   -2.9133 N   0  0  0  0  0  0  0  0  0  0  0  0
    5.9498   -2.1022   -2.0574 C   0  0  0  0  0  0  0  0  0  0  0  0
    6.7166   -0.9454   -1.9837 C   0  0  0  0  0  0  0  0  0  0  0  0
    6.3070    0.0971   -1.1485 C   0  0  0  0  0  0  0  0  0  0  0  0
    7.0400    1.2996   -1.0354 C   0  0  0  0  0  0  0  0  0  0  0  0
    6.6121    2.3618   -0.2210 C   0  0  0  0  0  0  0  0  0  0  0  0
    7.3720    3.6272   -0.1455 C   0  0  0  0  0  0  0  0  0  0  0  0
    8.0808    4.1318   -1.2342 C   0  0  0  0  0  0  0  0  0  0  0  0
    8.8096    5.2716   -1.2350 N   0  0  0  0  0  0  0  0  0  0  0  0
    8.8017    5.9897   -0.0909 C   0  0  0  0  0  0  0  0  0  0  0  0
    8.0925    5.6317    1.0441 C   0  0  0  0  0  0  0  0  0  0  0  0
    7.9823    6.3678    2.1970 O   0  0  0  0  0  0  0  0  0  0  0  0
    8.2581    7.7640    2.0112 C   0  0  0  0  0  0  0  0  0  0  0  0
    7.6008    8.6189    3.1189 C   0  0  1  0  0  0  0  0  0  0  0  0
    8.1304    8.2746    4.4522 N   0  0  0  0  0  0  0  0  0  0  0  0
    7.8398   10.0974    2.7328 C   0  0  0  0  0  0  0  0  0  0  0  0
    7.1186   11.1327    3.5307 C   0  0  0  0  0  0  0  0  0  0  0  0
    5.8358   11.0490    4.0388 C   0  0  0  0  0  0  0  0  0  0  0  0
    5.6249   12.1830    4.7716 N   0  0  0  0  0  0  0  0  0  0  0  0
    6.4772   13.1615    4.3244 C   0  0  0  0  0  0  0  0  0  0  0  0
    6.4022   14.5549    4.4047 C   0  0  0  0  0  0  0  0  0  0  0  0
    7.5045   15.2782    3.9432 C   0  0  0  0  0  0  0  0  0  0  0  0
    8.6641   14.6259    3.5260 C   0  0  0  0  0  0  0  0  0  0  0  0
    8.7077   13.2280    3.4331 C   0  0  0  0  0  0  0  0  0  0  0  0
    7.5521   12.4863    3.7498 C   0  0  0  0  0  0  0  0  0  0  0  0
    7.4109    4.4111    1.0245 C   0  0  0  0  0  0  0  0  0  0  0  0
    5.4116    2.1789    0.5020 C   0  0  0  0  0  0  0  0  0  0  0  0
    4.6886    0.9848    0.4191 C   0  0  0  0  0  0  0  0  0  0  0  0
    5.1250   -0.0557   -0.4063 C   0  0  0  0  0  0  0  0  0  0  0  0
    4.4212   -1.2589   -0.5472 C   0  0  0  0  0  0  0  0  0  0  0  0
    4.8156   -2.2691   -1.3614 N   0  0  0  0  0  0  0  0  0  0  0  0
    7.2723   -3.4371   -2.7466 H   0  0  0  0  0  0  0  0  0  0  0  0
    5.6498   -3.8883   -2.7746 H   0  0  0  0  0  0  0  0  0  0  0  0
    7.6090   -0.8548   -2.5944 H   0  0  0  0  0  0  0  0  0  0  0  0
    7.9631    1.3903   -1.6013 H   0  0  0  0  0  0  0  0  0  0  0  0
    8.0764    3.6270   -2.1996 H   0  0  0  0  0  0  0  0  0  0  0  0
    9.4100    6.8815   -0.1366 H   0  0  0  0  0  0  0  0  0  0  0  0
    7.8376    8.1006    1.0536 H   0  0  0  0  0  0  0  0  0  0  0  0
    9.3429    7.9159    2.0088 H   0  0  0  0  0  0  0  0  0  0  0  0
    6.5299    8.3949    3.1382 H   0  0  0  0  0  0  0  0  0  0  0  0
    9.1184    8.5119    4.5155 H   0  0  0  0  0  0  0  0  0  0  0  0
    8.0721    7.2617    4.5729 H   0  0  0  0  0  0  0  0  0  0  0  0
    7.5148   10.2378    1.6914 H   0  0  0  0  0  0  0  0  0  0  0  0
    8.9169   10.3057    2.7463 H   0  0  0  0  0  0  0  0  0  0  0  0
    5.0943   10.2625    4.0028 H   0  0  0  0  0  0  0  0  0  0  0  0
    4.9170   12.3037    5.4819 H   0  0  0  0  0  0  0  0  0  0  0  0
    5.5068   15.0565    4.7558 H   0  0  0  0  0  0  0  0  0  0  0  0
    7.4610   16.3647    3.9227 H   0  0  0  0  0  0  0  0  0  0  0  0
    9.5330   15.2094    3.2323 H   0  0  0  0  0  0  0  0  0  0  0  0
    9.6059   12.7348    3.0760 H   0  0  0  0  0  0  0  0  0  0  0  0
    6.8893    4.0981    1.9244 H   0  0  0  0  0  0  0  0  0  0  0  0
    5.0246    2.9685    1.1333 H   0  0  0  0  0  0  0  0  0  0  0  0
    3.7709    0.8846    0.9976 H   0  0  0  0  0  0  0  0  0  0  0  0
    3.5036   -1.4363   -0.0104 H   0  0  0  0  0  0  0  0  0  0  0  0
  1  2  1  0  0  0  0
  1 32  1  0  0  0  0
  1 33  1  0  0  0  0
  2  3  1  0  0  0  0
  2 31  2  0  0  0  0
  3  4  2  0  0  0  0
  3 34  1  0  0  0  0
  4  5  1  0  0  0  0
  4 29  1  0  0  0  0
  5  6  2  0  0  0  0
  5 35  1  0  0  0  0
  6  7  1  0  0  0  0
  6 27  1  0  0  0  0
  7  8  1  0  0  0  0
  7 26  2  0  0  0  0
  8  9  2  0  0  0  0
  8 36  1  0  0  0  0
  9 10  1  0  0  0  0
 10 11  2  0  0  0  0
 10 37  1  0  0  0  0
 11 12  1  0  0  0  0
 11 26  1  0  0  0  0
 12 13  1  0  0  0  0
 13 14  1  0  0  0  0
 13 38  1  0  0  0  0
 13 39  1  0  0  0  0
 14 15  1  0  0  0  0
 14 16  1  0  0  0  0
 14 40  1  6  0  0  0
 15 41  1  0  0  0  0
 15 42  1  0  0  0  0
 16 17  1  0  0  0  0
 16 43  1  0  0  0  0
 16 44  1  0  0  0  0
 17 18  2  0  0  0  0
 17 25  1  0  0  0  0
 18 19  1  0  0  0  0
 18 45  1  0  0  0  0
 19 20  1  0  0  0  0
 19 46  1  0  0  0  0
 20 21  1  0  0  0  0
 20 25  2  0  0  0  0
 21 22  2  0  0  0  0
 21 47  1  0  0  0  0
 22 23  1  0  0  0  0
 22 48  1  0  0  0  0
 23 24  2  0  0  0  0
 23 49  1  0  0  0  0
 24 25  1  0  0  0  0
 24 50  1  0  0  0  0
 26 51  1  0  0  0  0
 27 28  2  0  0  0  0
 27 52  1  0  0  0  0
 28 29  1  0  0  0  0
 28 53  1  0  0  0  0
 29 30  2  0  0  0  0
 30 31  1  0  0  0  0
 30 54  1  0  0  0  0
M  END
$$$$
