
 OpenBabel01112422483D

 37 42  0  0  0  0  0  0  0  0999 V2000
    0.9938   -0.0227    0.0516 O   0  0  0  0  0  0  0  0  0  0  0  0
    2.2097    0.1250    0.0506 C   0  0  0  0  0  0  0  0  0  0  0  0
    3.0682   -0.9690    0.0495 N   0  0  0  0  0  0  0  0  0  0  0  0
    4.4855   -0.6739    0.0507 C   0  0  0  0  0  0  0  0  0  0  0  0
    4.4362    0.7935    0.0503 C   0  0  0  0  0  0  0  0  0  0  0  0
    3.0871    1.2652    0.0511 C   0  0  0  0  0  0  0  0  0  0  0  0
    2.8603    2.6674    0.0505 C   0  0  0  0  0  0  0  0  0  0  0  0
    1.6401    3.3424    0.0503 C   0  0  0  0  0  0  0  0  0  0  0  0
    0.2636    3.0466    0.0496 C   0  0  0  0  0  0  0  0  0  0  0  0
   -0.6731    4.0892    0.0488 C   0  0  0  0  0  0  0  0  0  0  0  0
   -0.2631    5.4186    0.0492 C   0  0  0  0  0  0  0  0  0  0  0  0
    1.0927    5.7492    0.0506 C   0  0  0  0  0  0  0  0  0  0  0  0
    2.0231    4.7012    0.0508 C   0  0  0  0  0  0  0  0  0  0  0  0
    3.4129    4.7680    0.0514 N   0  0  0  0  0  0  0  0  0  0  0  0
    3.9294    3.5082    0.0505 C   0  0  0  0  0  0  0  0  0  0  0  0
    5.2222    3.0445    0.0499 C   0  0  0  0  0  0  0  0  0  0  0  0
    6.4292    3.6773    0.0490 N   0  0  0  0  0  0  0  0  0  0  0  0
    7.4510    2.7298    0.0491 C   0  0  0  0  0  0  0  0  0  0  0  0
    8.8372    2.9297    0.0487 C   0  0  0  0  0  0  0  0  0  0  0  0
    9.6575    1.7999    0.0490 C   0  0  0  0  0  0  0  0  0  0  0  0
    9.1127    0.5182    0.0496 C   0  0  0  0  0  0  0  0  0  0  0  0
    7.7242    0.3244    0.0498 C   0  0  0  0  0  0  0  0  0  0  0  0
    6.8701    1.4438    0.0496 C   0  0  0  0  0  0  0  0  0  0  0  0
    5.5054    1.7185    0.0499 C   0  0  0  0  0  0  0  0  0  0  0  0
    2.6775   -1.8999    0.0502 H   0  0  0  0  0  0  0  0  0  0  0  0
    4.9358   -1.0838   -0.8557 H   0  0  0  0  0  0  0  0  0  0  0  0
    4.9339   -1.0829    0.9584 H   0  0  0  0  0  0  0  0  0  0  0  0
   -0.0950    2.0232    0.0493 H   0  0  0  0  0  0  0  0  0  0  0  0
   -1.7339    3.8502    0.0476 H   0  0  0  0  0  0  0  0  0  0  0  0
   -1.0082    6.2106    0.0483 H   0  0  0  0  0  0  0  0  0  0  0  0
    1.4087    6.7874    0.0511 H   0  0  0  0  0  0  0  0  0  0  0  0
    3.9402    5.6277    0.0523 H   0  0  0  0  0  0  0  0  0  0  0  0
    6.5775    4.6749    0.0483 H   0  0  0  0  0  0  0  0  0  0  0  0
    9.2663    3.9265    0.0483 H   0  0  0  0  0  0  0  0  0  0  0  0
   10.7382    1.9258    0.0488 H   0  0  0  0  0  0  0  0  0  0  0  0
    9.7749   -0.3447    0.0499 H   0  0  0  0  0  0  0  0  0  0  0  0
    7.3309   -0.6862    0.0502 H   0  0  0  0  0  0  0  0  0  0  0  0
  1  2  2  0  0  0  0
  2  3  1  0  0  0  0
  2  6  1  0  0  0  0
  3  4  1  0  0  0  0
  3 25  1  0  0  0  0
  4  5  1  0  0  0  0
  4 26  1  0  0  0  0
  4 27  1  0  0  0  0
  5  6  1  0  0  0  0
  5 24  2  0  0  0  0
  6  7  2  0  0  0  0
  7  8  1  0  0  0  0
  7 15  1  0  0  0  0
  8  9  1  0  0  0  0
  8 13  2  0  0  0  0
  9 10  2  0  0  0  0
  9 28  1  0  0  0  0
 10 11  1  0  0  0  0
 10 29  1  0  0  0  0
 11 12  2  0  0  0  0
 11 30  1  0  0  0  0
 12 13  1  0  0  0  0
 12 31  1  0  0  0  0
 13 14  1  0  0  0  0
 14 15  1  0  0  0  0
 14 32  1  0  0  0  0
 15 16  2  0  0  0  0
 16 17  1  0  0  0  0
 16 24  1  0  0  0  0
 17 18  1  0  0  0  0
 17 33  1  0  0  0  0
 18 19  1  0  0  0  0
 18 23  2  0  0  0  0
 19 20  2  0  0  0  0
 19 34  1  0  0  0  0
 20 21  1  0  0  0  0
 20 35  1  0  0  0  0
 21 22  2  0  0  0  0
 21 36  1  0  0  0  0
 22 23  1  0  0  0  0
 22 37  1  0  0  0  0
 23 24  1  0  0  0  0
M  END
$$$$
