
 OpenBabel01112422413D

 54 58  0  0  0  0  0  0  0  0999 V2000
    1.0293    0.0362    0.1598 O   0  0  0  0  0  0  0  0  0  0  0  0
    2.2567   -0.0424    0.0594 C   0  0  0  0  0  0  0  0  0  0  0  0
    3.0174    1.2280   -0.0001 C   0  0  0  0  0  0  0  0  0  0  0  0
    2.3248    2.4535   -0.0180 C   0  0  0  0  0  0  0  0  0  0  0  0
    0.9544    2.5658    0.0218 O   0  0  0  0  0  0  0  0  0  0  0  0
    3.0220    3.6535   -0.0877 C   0  0  0  0  0  0  0  0  0  0  0  0
    2.3478    4.8395   -0.1184 O   0  0  0  0  0  0  0  0  0  0  0  0
    4.4000    3.6632   -0.1325 C   0  0  0  0  0  0  0  0  0  0  0  0
    5.0920    2.4475   -0.1180 C   0  0  0  0  0  0  0  0  0  0  0  0
    4.4218    1.2014   -0.0563 C   0  0  0  0  0  0  0  0  0  0  0  0
    5.1275   -0.0994   -0.0583 C   0  0  0  0  0  0  0  0  0  0  0  0
    6.5433   -0.1824   -0.0761 C   0  0  0  0  0  0  0  0  0  0  0  0
    7.1894   -1.4115   -0.0925 C   0  0  0  0  0  0  0  0  0  0  0  0
    8.5507   -1.5231   -0.1079 O   0  0  0  0  0  0  0  0  0  0  0  0
    6.4497   -2.5770   -0.0843 C   0  0  0  0  0  0  0  0  0  0  0  0
    7.0748   -3.7900   -0.0994 O   0  0  0  0  0  0  0  0  0  0  0  0
    5.0653   -2.5338   -0.0485 C   0  0  0  0  0  0  0  0  0  0  0  0
    4.3795   -1.3063   -0.0461 C   0  0  0  0  0  0  0  0  0  0  0  0
    2.9456   -1.2550   -0.0093 N   0  0  0  0  0  0  0  0  0  0  0  0
    2.1265   -2.4781   -0.0984 C   0  0  0  0  0  0  0  0  0  0  0  0
    1.8287   -2.8638   -1.5379 C   0  0  0  0  0  0  0  0  0  0  0  0
    2.6786   -3.7235   -2.2512 C   0  0  0  0  0  0  0  0  0  0  0  0
    2.5078   -3.9230   -3.6209 C   0  0  0  0  0  0  0  0  0  0  0  0
    1.4678   -3.2705   -4.2819 C   0  0  0  0  0  0  0  0  0  0  0  0
    1.3938   -3.3383   -6.0559 S   0  0  0  0  0  0  0  0  0  0  0  0
    2.0128   -4.5805   -6.4775 O   0  0  0  0  0  0  0  0  0  0  0  0
    0.0326   -3.0232   -6.4563 O   0  0  0  0  0  0  0  0  0  0  0  0
    2.4393   -2.0007   -6.5990 C   0  0  0  0  0  0  0  0  0  0  0  0
    3.8052   -2.2279   -6.7983 C   0  0  0  0  0  0  0  0  0  0  0  0
    4.6291   -1.1658   -7.1684 C   0  0  0  0  0  0  0  0  0  0  0  0
    4.0893    0.1094   -7.3514 C   0  0  0  0  0  0  0  0  0  0  0  0
    2.7215    0.3245   -7.1761 C   0  0  0  0  0  0  0  0  0  0  0  0
    1.8892   -0.7315   -6.8020 C   0  0  0  0  0  0  0  0  0  0  0  0
    0.5411   -2.5044   -3.5741 C   0  0  0  0  0  0  0  0  0  0  0  0
    0.7297   -2.2972   -2.2061 C   0  0  0  0  0  0  0  0  0  0  0  0
    0.5897    1.6534    0.1007 H   0  0  0  0  0  0  0  0  0  0  0  0
    1.4023    4.5858   -0.0894 H   0  0  0  0  0  0  0  0  0  0  0  0
    4.9383    4.6065   -0.1834 H   0  0  0  0  0  0  0  0  0  0  0  0
    6.1750    2.5146   -0.1637 H   0  0  0  0  0  0  0  0  0  0  0  0
    7.1553    0.7114   -0.0761 H   0  0  0  0  0  0  0  0  0  0  0  0
    8.9394   -0.6319   -0.0759 H   0  0  0  0  0  0  0  0  0  0  0  0
    8.0303   -3.5792   -0.1089 H   0  0  0  0  0  0  0  0  0  0  0  0
    4.5606   -3.4890   -0.0065 H   0  0  0  0  0  0  0  0  0  0  0  0
    1.1726   -2.3138    0.4200 H   0  0  0  0  0  0  0  0  0  0  0  0
    2.5838   -3.3056    0.4522 H   0  0  0  0  0  0  0  0  0  0  0  0
    3.5084   -4.2255   -1.7623 H   0  0  0  0  0  0  0  0  0  0  0  0
    3.2112   -4.5508   -4.1636 H   0  0  0  0  0  0  0  0  0  0  0  0
    4.2345   -3.2177   -6.6580 H   0  0  0  0  0  0  0  0  0  0  0  0
    5.6936   -1.3297   -7.3166 H   0  0  0  0  0  0  0  0  0  0  0  0
    4.7356    0.9370   -7.6371 H   0  0  0  0  0  0  0  0  0  0  0  0
    2.3049    1.3175   -7.3284 H   0  0  0  0  0  0  0  0  0  0  0  0
    0.8252   -0.5540   -6.6638 H   0  0  0  0  0  0  0  0  0  0  0  0
   -0.2980   -2.0319   -4.0794 H   0  0  0  0  0  0  0  0  0  0  0  0
    0.0313   -1.6582   -1.6668 H   0  0  0  0  0  0  0  0  0  0  0  0
  1  2  2  0  0  0  0
  2  3  1  0  0  0  0
  2 19  1  0  0  0  0
  3  4  1  0  0  0  0
  3 10  2  0  0  0  0
  4  5  1  0  0  0  0
  4  6  2  0  0  0  0
  5 36  1  0  0  0  0
  6  7  1  0  0  0  0
  6  8  1  0  0  0  0
  7 37  1  0  0  0  0
  8  9  2  0  0  0  0
  8 38  1  0  0  0  0
  9 10  1  0  0  0  0
  9 39  1  0  0  0  0
 10 11  1  0  0  0  0
 11 12  1  0  0  0  0
 11 18  2  0  0  0  0
 12 13  2  0  0  0  0
 12 40  1  0  0  0  0
 13 14  1  0  0  0  0
 13 15  1  0  0  0  0
 14 41  1  0  0  0  0
 15 16  1  0  0  0  0
 15 17  2  0  0  0  0
 16 42  1  0  0  0  0
 17 18  1  0  0  0  0
 17 43  1  0  0  0  0
 18 19  1  0  0  0  0
 19 20  1  0  0  0  0
 20 21  1  0  0  0  0
 20 44  1  0  0  0  0
 20 45  1  0  0  0  0
 21 22  1  0  0  0  0
 21 35  2  0  0  0  0
 22 23  2  0  0  0  0
 22 46  1  0  0  0  0
 23 24  1  0  0  0  0
 23 47  1  0  0  0  0
 24 25  1  0  0  0  0
 24 34  2  0  0  0  0
 25 26  2  0  0  0  0
 25 27  2  0  0  0  0
 25 28  1  0  0  0  0
 28 29  1  0  0  0  0
 28 33  2  0  0  0  0
 29 30  2  0  0  0  0
 29 48  1  0  0  0  0
 30 31  1  0  0  0  0
 30 49  1  0  0  0  0
 31 32  2  0  0  0  0
 31 50  1  0  0  0  0
 32 33  1  0  0  0  0
 32 51  1  0  0  0  0
 33 52  1  0  0  0  0
 34 35  1  0  0  0  0
 34 53  1  0  0  0  0
 35 54  1  0  0  0  0
M  END
$$$$
