
 OpenBabel01112423013D

 51 54  0  0  0  0  0  0  0  0999 V2000
   10.5214    3.3213    3.3705 C   0  0  0  0  0  0  0  0  0  0  0  0
    9.7809    2.2434    2.7954 O   0  0  0  0  0  0  0  0  0  0  0  0
   10.4430    1.5256    1.8529 C   0  0  0  0  0  0  0  0  0  0  0  0
   11.5909    1.7115    1.4838 O   0  0  0  0  0  0  0  0  0  0  0  0
    9.5533    0.4678    1.2947 C   0  0  0  0  0  0  0  0  0  0  0  0
    8.2534    0.2792    1.7829 C   0  0  0  0  0  0  0  0  0  0  0  0
    7.4397   -0.7051    1.2333 C   0  0  0  0  0  0  0  0  0  0  0  0
    7.9069   -1.4845    0.1761 C   0  0  0  0  0  0  0  0  0  0  0  0
    9.1847   -1.2861   -0.3569 C   0  0  0  0  0  0  0  0  0  0  0  0
    9.6555   -2.0070   -1.4773 N   0  0  0  0  0  0  0  0  0  0  0  0
    8.8651   -2.7065   -2.3840 C   0  0  0  0  0  0  0  0  0  0  0  0
    7.6345   -2.7047   -2.3926 O   0  0  0  0  0  0  0  0  0  0  0  0
    9.6820   -3.4916   -3.4551 C   0  0  0  0  0  0  0  0  0  0  0  0
   10.5150   -2.4978   -4.1889 N   0  0  0  0  0  0  0  0  0  0  0  0
    8.7427   -4.2186   -4.4421 C   0  0  0  0  0  0  0  0  0  0  0  0
    7.9968   -5.3843   -3.7815 C   0  0  0  0  0  0  0  0  0  0  0  0
    8.9435   -6.2301   -3.0615 N   0  0  0  0  0  0  0  0  0  0  0  0
    8.8489   -7.6015   -3.1942 C   0  0  0  0  0  0  0  0  0  0  0  0
    8.5344   -8.0975   -4.4231 N   0  0  0  0  0  0  0  0  0  0  0  0
    8.5192   -9.4288   -4.6202 C   0  0  0  0  0  0  0  0  0  0  0  0
    8.7597  -10.4009   -3.7290 N   0  0  0  0  0  0  0  0  0  0  0  0
    9.0256   -9.8889   -2.5199 C   0  0  0  0  0  0  0  0  0  0  0  0
    9.2935  -10.6447   -1.4108 N   0  0  0  0  0  0  0  0  0  0  0  0
    9.5084   -9.8262   -0.3323 C   0  0  0  0  0  0  0  0  0  0  0  0
    9.3761   -8.5240   -0.7677 C   0  0  0  0  0  0  0  0  0  0  0  0
    9.0892   -8.5469   -2.1684 C   0  0  0  0  0  0  0  0  0  0  0  0
    9.8152   -5.6046   -2.0868 C   0  0  0  0  0  0  0  0  0  0  0  0
   10.6169   -4.5098   -2.7875 C   0  0  0  0  0  0  0  0  0  0  0  0
   10.0236   -0.3334    0.2367 C   0  0  0  0  0  0  0  0  0  0  0  0
    9.9406    3.7151    4.2101 H   0  0  0  0  0  0  0  0  0  0  0  0
   10.6515    4.1205    2.6351 H   0  0  0  0  0  0  0  0  0  0  0  0
   11.4875    2.9778    3.7514 H   0  0  0  0  0  0  0  0  0  0  0  0
    7.8580    0.8934    2.5880 H   0  0  0  0  0  0  0  0  0  0  0  0
    6.4333   -0.8587    1.6140 H   0  0  0  0  0  0  0  0  0  0  0  0
    7.2400   -2.2470   -0.2155 H   0  0  0  0  0  0  0  0  0  0  0  0
   10.6100   -1.8434   -1.7872 H   0  0  0  0  0  0  0  0  0  0  0  0
    9.8852   -1.8589   -4.6823 H   0  0  0  0  0  0  0  0  0  0  0  0
   11.0191   -2.9870   -4.9323 H   0  0  0  0  0  0  0  0  0  0  0  0
    9.3297   -4.6218   -5.2788 H   0  0  0  0  0  0  0  0  0  0  0  0
    8.0130   -3.5239   -4.8775 H   0  0  0  0  0  0  0  0  0  0  0  0
    7.4439   -5.9236   -4.5603 H   0  0  0  0  0  0  0  0  0  0  0  0
    7.2369   -5.0221   -3.0799 H   0  0  0  0  0  0  0  0  0  0  0  0
    8.2899   -9.7532   -5.6303 H   0  0  0  0  0  0  0  0  0  0  0  0
    9.3137  -11.6539   -1.4158 H   0  0  0  0  0  0  0  0  0  0  0  0
    9.7284  -10.2359    0.6437 H   0  0  0  0  0  0  0  0  0  0  0  0
    9.4691   -7.6493   -0.1385 H   0  0  0  0  0  0  0  0  0  0  0  0
   10.5463   -6.3029   -1.6691 H   0  0  0  0  0  0  0  0  0  0  0  0
    9.2281   -5.2000   -1.2540 H   0  0  0  0  0  0  0  0  0  0  0  0
   11.2546   -4.9795   -3.5509 H   0  0  0  0  0  0  0  0  0  0  0  0
   11.2928   -4.0380   -2.0653 H   0  0  0  0  0  0  0  0  0  0  0  0
   11.0328   -0.1772   -0.1390 H   0  0  0  0  0  0  0  0  0  0  0  0
  1  2  1  0  0  0  0
  1 30  1  0  0  0  0
  1 31  1  0  0  0  0
  1 32  1  0  0  0  0
  2  3  1  0  0  0  0
  3  4  2  0  0  0  0
  3  5  1  0  0  0  0
  5  6  1  0  0  0  0
  5 29  2  0  0  0  0
  6  7  2  0  0  0  0
  6 33  1  0  0  0  0
  7  8  1  0  0  0  0
  7 34  1  0  0  0  0
  8  9  2  0  0  0  0
  8 35  1  0  0  0  0
  9 10  1  0  0  0  0
  9 29  1  0  0  0  0
 10 11  1  0  0  0  0
 10 36  1  0  0  0  0
 11 12  2  0  0  0  0
 11 13  1  0  0  0  0
 13 14  1  0  0  0  0
 13 15  1  0  0  0  0
 13 28  1  0  0  0  0
 14 37  1  0  0  0  0
 14 38  1  0  0  0  0
 15 16  1  0  0  0  0
 15 39  1  0  0  0  0
 15 40  1  0  0  0  0
 16 17  1  0  0  0  0
 16 41  1  0  0  0  0
 16 42  1  0  0  0  0
 17 18  1  0  0  0  0
 17 27  1  0  0  0  0
 18 19  1  0  0  0  0
 18 26  2  0  0  0  0
 19 20  2  0  0  0  0
 20 21  1  0  0  0  0
 20 43  1  0  0  0  0
 21 22  2  0  0  0  0
 22 23  1  0  0  0  0
 22 26  1  0  0  0  0
 23 24  1  0  0  0  0
 23 44  1  0  0  0  0
 24 25  2  0  0  0  0
 24 45  1  0  0  0  0
 25 26  1  0  0  0  0
 25 46  1  0  0  0  0
 27 28  1  0  0  0  0
 27 47  1  0  0  0  0
 27 48  1  0  0  0  0
 28 49  1  0  0  0  0
 28 50  1  0  0  0  0
 29 51  1  0  0  0  0
M  END
$$$$
