
 OpenBabel01112422503D

 52 56  0  0  1  0  0  0  0  0999 V2000
    2.9112   -0.2296   -1.5264 N   0  0  0  0  0  0  0  0  0  0  0  0
    2.4564   -0.0202   -0.1367 C   0  0  2  0  0  0  0  0  0  0  0  0
    0.9159    0.0066   -0.1161 C   0  0  0  0  0  0  0  0  0  0  0  0
    0.4466    1.1311   -0.8739 O   0  0  0  0  0  0  0  0  0  0  0  0
   -0.8993    1.3400   -0.8949 C   0  0  0  0  0  0  0  0  0  0  0  0
   -1.3406    2.4622   -1.5741 C   0  0  0  0  0  0  0  0  0  0  0  0
   -2.6324    2.8418   -1.6440 N   0  0  0  0  0  0  0  0  0  0  0  0
   -3.5369    2.0626   -0.9995 C   0  0  0  0  0  0  0  0  0  0  0  0
   -5.1044    2.7811   -1.0732 Cl  0  0  0  0  0  0  0  0  0  0  0  0
   -3.2351    0.8780   -0.3076 C   0  0  0  0  0  0  0  0  0  0  0  0
   -4.2083    0.0006    0.4007 C   0  0  0  0  0  0  0  0  0  0  0  0
   -3.8572   -0.6536    1.5992 C   0  0  0  0  0  0  0  0  0  0  0  0
   -4.7467   -1.5005    2.2703 C   0  0  0  0  0  0  0  0  0  0  0  0
   -6.0461   -1.6840    1.7839 C   0  0  0  0  0  0  0  0  0  0  0  0
   -6.9980   -2.4775    2.4292 C   0  0  0  0  0  0  0  0  0  0  0  0
   -8.2697   -2.6471    2.0003 N   0  0  0  0  0  0  0  0  0  0  0  0
   -8.6153   -1.9965    0.8704 C   0  0  0  0  0  0  0  0  0  0  0  0
   -7.7464   -1.2023    0.1390 C   0  0  0  0  0  0  0  0  0  0  0  0
   -6.4339   -1.0418    0.5967 C   0  0  0  0  0  0  0  0  0  0  0  0
   -5.5010   -0.2461   -0.0961 C   0  0  0  0  0  0  0  0  0  0  0  0
   -1.8648    0.5380   -0.2896 C   0  0  0  0  0  0  0  0  0  0  0  0
    3.0175    1.2662    0.5173 C   0  0  0  0  0  0  0  0  0  0  0  0
    4.5137    1.3196    0.5389 C   0  0  0  0  0  0  0  0  0  0  0  0
    5.3488    0.8218    1.5200 C   0  0  0  0  0  0  0  0  0  0  0  0
    6.6438    1.0461    1.1323 N   0  0  0  0  0  0  0  0  0  0  0  0
    6.6732    1.6796   -0.0888 C   0  0  0  0  0  0  0  0  0  0  0  0
    7.7591    2.0803   -0.8765 C   0  0  0  0  0  0  0  0  0  0  0  0
    7.4790    2.7138   -2.0914 C   0  0  0  0  0  0  0  0  0  0  0  0
    6.1682    2.9415   -2.4999 C   0  0  0  0  0  0  0  0  0  0  0  0
    5.0945    2.5399   -1.6965 C   0  0  0  0  0  0  0  0  0  0  0  0
    5.3501    1.8878   -0.4741 C   0  0  0  0  0  0  0  0  0  0  0  0
    3.9324   -0.1907   -1.5491 H   0  0  0  0  0  0  0  0  0  0  0  0
    2.5970    0.5615   -2.0905 H   0  0  0  0  0  0  0  0  0  0  0  0
    2.7908   -0.8874    0.4456 H   0  0  0  0  0  0  0  0  0  0  0  0
    0.5300   -0.9215   -0.5563 H   0  0  0  0  0  0  0  0  0  0  0  0
    0.5782    0.0855    0.9252 H   0  0  0  0  0  0  0  0  0  0  0  0
   -0.6397    3.1148   -2.0877 H   0  0  0  0  0  0  0  0  0  0  0  0
   -2.8734   -0.5127    2.0437 H   0  0  0  0  0  0  0  0  0  0  0  0
   -4.4219   -1.9973    3.1819 H   0  0  0  0  0  0  0  0  0  0  0  0
   -6.7592   -3.0127    3.3448 H   0  0  0  0  0  0  0  0  0  0  0  0
   -9.6466   -2.1280    0.5550 H   0  0  0  0  0  0  0  0  0  0  0  0
   -8.0971   -0.7032   -0.7581 H   0  0  0  0  0  0  0  0  0  0  0  0
   -5.8102    0.1831   -1.0469 H   0  0  0  0  0  0  0  0  0  0  0  0
   -1.5625   -0.3757    0.2118 H   0  0  0  0  0  0  0  0  0  0  0  0
    2.6489    1.3309    1.5501 H   0  0  0  0  0  0  0  0  0  0  0  0
    2.6366    2.1588    0.0055 H   0  0  0  0  0  0  0  0  0  0  0  0
    5.1340    0.3192    2.4543 H   0  0  0  0  0  0  0  0  0  0  0  0
    7.4650    0.7733    1.6544 H   0  0  0  0  0  0  0  0  0  0  0  0
    8.7830    1.9046   -0.5641 H   0  0  0  0  0  0  0  0  0  0  0  0
    8.3012    3.0305   -2.7303 H   0  0  0  0  0  0  0  0  0  0  0  0
    5.9721    3.4349   -3.4486 H   0  0  0  0  0  0  0  0  0  0  0  0
    4.0768    2.7217   -2.0276 H   0  0  0  0  0  0  0  0  0  0  0  0
  1 32  1  0  0  0  0
  1 33  1  0  0  0  0
  2 22  1  0  0  0  0
  2  3  1  0  0  0  0
  2  1  1  0  0  0  0
  2 34  1  1  0  0  0
  3  4  1  0  0  0  0
  3 35  1  0  0  0  0
  3 36  1  0  0  0  0
  4  5  1  0  0  0  0
  5  6  1  0  0  0  0
  5 21  2  0  0  0  0
  6  7  2  0  0  0  0
  6 37  1  0  0  0  0
  7  8  1  0  0  0  0
  8  9  1  0  0  0  0
  8 10  2  0  0  0  0
 10 11  1  0  0  0  0
 10 21  1  0  0  0  0
 11 12  1  0  0  0  0
 11 20  2  0  0  0  0
 12 13  2  0  0  0  0
 12 38  1  0  0  0  0
 13 14  1  0  0  0  0
 13 39  1  0  0  0  0
 14 15  1  0  0  0  0
 14 19  2  0  0  0  0
 15 16  2  0  0  0  0
 15 40  1  0  0  0  0
 16 17  1  0  0  0  0
 17 18  2  0  0  0  0
 17 41  1  0  0  0  0
 18 19  1  0  0  0  0
 18 42  1  0  0  0  0
 19 20  1  0  0  0  0
 20 43  1  0  0  0  0
 21 44  1  0  0  0  0
 22 23  1  0  0  0  0
 22 45  1  0  0  0  0
 22 46  1  0  0  0  0
 23 24  2  0  0  0  0
 23 31  1  0  0  0  0
 24 25  1  0  0  0  0
 24 47  1  0  0  0  0
 25 26  1  0  0  0  0
 25 48  1  0  0  0  0
 26 27  1  0  0  0  0
 26 31  2  0  0  0  0
 27 28  2  0  0  0  0
 27 49  1  0  0  0  0
 28 29  1  0  0  0  0
 28 50  1  0  0  0  0
 29 30  2  0  0  0  0
 29 51  1  0  0  0  0
 30 31  1  0  0  0  0
 30 52  1  0  0  0  0
M  END
$$$$
