
 OpenBabel01112422373D

 38 41  0  0  0  0  0  0  0  0999 V2000
    1.0101    0.0031   -0.0986 O   0  0  0  0  0  0  0  0  0  0  0  0
    2.2316   -0.0249    0.0395 C   0  0  0  0  0  0  0  0  0  0  0  0
    2.8932    1.2251    0.5030 C   0  0  0  0  0  0  0  0  0  0  0  0
    2.1788    2.0893    1.3427 C   0  0  0  0  0  0  0  0  0  0  0  0
    2.8131    3.1953    1.9114 C   0  0  0  0  0  0  0  0  0  0  0  0
    4.1596    3.4351    1.6395 C   0  0  0  0  0  0  0  0  0  0  0  0
    5.0405    4.8821    2.4762 Br  0  0  0  0  0  0  0  0  0  0  0  0
    4.8660    2.6074    0.7669 C   0  0  0  0  0  0  0  0  0  0  0  0
    4.2243    1.5185    0.1716 C   0  0  0  0  0  0  0  0  0  0  0  0
    2.8996   -1.2685   -0.1307 N   0  0  0  0  0  0  0  0  0  0  0  0
    3.9953   -1.7045    0.6412 C   0  0  0  0  0  0  0  0  0  0  0  0
    4.6502   -1.1210    1.7524 C   0  0  0  0  0  0  0  0  0  0  0  0
    5.7726   -1.7551    2.2729 C   0  0  0  0  0  0  0  0  0  0  0  0
    6.4969   -1.1938    3.2903 O   0  0  0  0  0  0  0  0  0  0  0  0
    6.1927   -2.9754    1.7758 C   0  0  0  0  0  0  0  0  0  0  0  0
    7.2875   -3.5861    2.3191 O   0  0  0  0  0  0  0  0  0  0  0  0
    5.5084   -3.6015    0.7397 C   0  0  0  0  0  0  0  0  0  0  0  0
    4.3908   -2.9555    0.1588 C   0  0  0  0  0  0  0  0  0  0  0  0
    3.4819   -3.3251   -0.8745 C   0  0  0  0  0  0  0  0  0  0  0  0
    3.3715   -4.4823   -1.6844 C   0  0  0  0  0  0  0  0  0  0  0  0
    2.3741   -4.5761   -2.6599 C   0  0  0  0  0  0  0  0  0  0  0  0
    1.5121   -3.5119   -2.8444 C   0  0  0  0  0  0  0  0  0  0  0  0
    0.5334   -3.5438   -3.8053 O   0  0  0  0  0  0  0  0  0  0  0  0
    1.6099   -2.3498   -2.0721 C   0  0  0  0  0  0  0  0  0  0  0  0
    0.7685   -1.3088   -2.3770 O   0  0  0  0  0  0  0  0  0  0  0  0
    2.5766   -2.2713   -1.0508 C   0  0  0  0  0  0  0  0  0  0  0  0
    1.1340    1.8879    1.5757 H   0  0  0  0  0  0  0  0  0  0  0  0
    2.2544    3.8476    2.5773 H   0  0  0  0  0  0  0  0  0  0  0  0
    5.9177    2.7894    0.5585 H   0  0  0  0  0  0  0  0  0  0  0  0
    4.7895    0.8777   -0.5025 H   0  0  0  0  0  0  0  0  0  0  0  0
    4.3030   -0.1968    2.1968 H   0  0  0  0  0  0  0  0  0  0  0  0
    6.1176   -0.3202    3.4920 H   0  0  0  0  0  0  0  0  0  0  0  0
    7.5818   -2.9778    3.0273 H   0  0  0  0  0  0  0  0  0  0  0  0
    5.8372   -4.5734    0.3859 H   0  0  0  0  0  0  0  0  0  0  0  0
    4.0681   -5.3061   -1.5487 H   0  0  0  0  0  0  0  0  0  0  0  0
    2.3064   -5.4749   -3.2637 H   0  0  0  0  0  0  0  0  0  0  0  0
    0.5691   -4.4069   -4.2499 H   0  0  0  0  0  0  0  0  0  0  0  0
    0.1476   -1.6706   -3.0394 H   0  0  0  0  0  0  0  0  0  0  0  0
  1  2  2  0  0  0  0
  2  3  1  0  0  0  0
  2 10  1  0  0  0  0
  3  4  1  0  0  0  0
  3  9  2  0  0  0  0
  4  5  2  0  0  0  0
  4 27  1  0  0  0  0
  5  6  1  0  0  0  0
  5 28  1  0  0  0  0
  6  7  1  0  0  0  0
  6  8  2  0  0  0  0
  8  9  1  0  0  0  0
  8 29  1  0  0  0  0
  9 30  1  0  0  0  0
 10 11  1  0  0  0  0
 10 26  1  0  0  0  0
 11 12  1  0  0  0  0
 11 18  2  0  0  0  0
 12 13  2  0  0  0  0
 12 31  1  0  0  0  0
 13 14  1  0  0  0  0
 13 15  1  0  0  0  0
 14 32  1  0  0  0  0
 15 16  1  0  0  0  0
 15 17  2  0  0  0  0
 16 33  1  0  0  0  0
 17 18  1  0  0  0  0
 17 34  1  0  0  0  0
 18 19  1  0  0  0  0
 19 20  1  0  0  0  0
 19 26  2  0  0  0  0
 20 21  2  0  0  0  0
 20 35  1  0  0  0  0
 21 22  1  0  0  0  0
 21 36  1  0  0  0  0
 22 23  1  0  0  0  0
 22 24  2  0  0  0  0
 23 37  1  0  0  0  0
 24 25  1  0  0  0  0
 24 26  1  0  0  0  0
 25 38  1  0  0  0  0
M  END
$$$$
