
 OpenBabel01112422443D

 63 66  0  0  1  0  0  0  0  0999 V2000
    3.4686    1.0402   -1.1869 C   0  0  0  0  0  0  0  0  0  0  0  0
    2.8545   -0.1614   -0.7145 O   0  0  0  0  0  0  0  0  0  0  0  0
    3.7086   -1.1186   -0.2577 C   0  0  0  0  0  0  0  0  0  0  0  0
    4.9181   -1.0085   -0.1665 O   0  0  0  0  0  0  0  0  0  0  0  0
    2.9369   -2.3704   -0.0108 C   0  0  0  0  0  0  0  0  0  0  0  0
    1.8163   -2.6069   -0.8432 C   0  0  0  0  0  0  0  0  0  0  0  0
    1.1010   -3.7994   -0.7774 C   0  0  0  0  0  0  0  0  0  0  0  0
    1.4726   -4.7680    0.1425 C   0  0  0  0  0  0  0  0  0  0  0  0
    2.5567   -4.5369    0.9943 C   0  0  0  0  0  0  0  0  0  0  0  0
    2.8581   -5.5087    1.9138 O   0  0  0  0  0  0  0  0  0  0  0  0
    3.3328   -3.3589    0.9115 C   0  0  0  0  0  0  0  0  0  0  0  0
    4.5145   -3.1929    1.8163 C   0  0  0  0  0  0  0  0  0  0  0  0
    4.6474   -2.1413    2.4443 O   0  0  0  0  0  0  0  0  0  0  0  0
    5.4774   -4.3137    2.0943 C   0  0  0  0  0  0  0  0  0  0  0  0
    6.1196   -4.4023    3.3446 C   0  0  0  0  0  0  0  0  0  0  0  0
    5.9798   -3.4395    4.3132 O   0  0  0  0  0  0  0  0  0  0  0  0
    6.9262   -5.5074    3.6759 C   0  0  0  0  0  0  0  0  0  0  0  0
    7.1385   -6.5364    2.7454 C   0  0  0  0  0  0  0  0  0  0  0  0
    7.9666   -7.7343    3.1047 C   0  0  0  0  0  0  0  0  0  0  0  0
    8.5183   -7.8721    4.1777 O   0  0  0  0  0  0  0  0  0  0  0  0
    7.9804   -8.6466    2.0723 O   0  0  0  0  0  0  0  0  0  0  0  0
    8.7134   -9.8512    2.3245 C   0  0  3  0  0  0  0  0  0  0  0  0
   10.2194   -9.6592    2.1932 C   0  0  0  0  0  0  0  0  0  0  0  0
   10.7799  -11.0650    2.0010 C   0  0  0  0  0  0  0  0  0  0  0  0
    9.5965  -11.9587    1.6318 C   0  0  0  0  0  0  0  0  0  0  0  0
    8.4244  -11.0062    1.3333 C   0  0  3  0  0  0  0  0  0  0  0  0
    8.3474  -10.6640   -0.1798 C   0  0  0  0  0  0  0  0  0  0  0  0
    8.0652  -11.9031   -1.0297 C   0  0  0  0  0  0  0  0  0  0  0  0
    6.9316  -12.6868   -0.7642 C   0  0  0  0  0  0  0  0  0  0  0  0
    6.7379  -13.9185   -1.3941 C   0  0  0  0  0  0  0  0  0  0  0  0
    7.6464  -14.3466   -2.3526 C   0  0  0  0  0  0  0  0  0  0  0  0
    7.4986  -15.5561   -2.9688 O   0  0  0  0  0  0  0  0  0  0  0  0
    8.7319  -13.5531   -2.6984 C   0  0  0  0  0  0  0  0  0  0  0  0
    8.9466  -12.3348   -2.0322 C   0  0  0  0  0  0  0  0  0  0  0  0
    6.5457   -6.4290    1.4842 C   0  0  0  0  0  0  0  0  0  0  0  0
    5.7271   -5.3385    1.1712 C   0  0  0  0  0  0  0  0  0  0  0  0
    5.1543   -5.3272   -0.0714 O   0  0  0  0  0  0  0  0  0  0  0  0
    2.7578    1.5419   -1.8540 H   0  0  0  0  0  0  0  0  0  0  0  0
    4.3780    0.8363   -1.7601 H   0  0  0  0  0  0  0  0  0  0  0  0
    3.6786    1.6986   -0.3419 H   0  0  0  0  0  0  0  0  0  0  0  0
    1.5041   -1.8674   -1.5801 H   0  0  0  0  0  0  0  0  0  0  0  0
    0.2604   -3.9680   -1.4463 H   0  0  0  0  0  0  0  0  0  0  0  0
    0.9068   -5.6937    0.1883 H   0  0  0  0  0  0  0  0  0  0  0  0
    2.4071   -6.3338    1.6693 H   0  0  0  0  0  0  0  0  0  0  0  0
    5.5300   -2.6645    3.9015 H   0  0  0  0  0  0  0  0  0  0  0  0
    7.3816   -5.5531    4.6644 H   0  0  0  0  0  0  0  0  0  0  0  0
    8.4702  -10.2193    3.3328 H   0  0  0  0  0  0  0  0  0  0  0  0
   10.6504   -9.1684    3.0710 H   0  0  0  0  0  0  0  0  0  0  0  0
   10.4519   -9.0251    1.3301 H   0  0  0  0  0  0  0  0  0  0  0  0
   11.2525  -11.4324    2.9184 H   0  0  0  0  0  0  0  0  0  0  0  0
   11.5420  -11.0679    1.2144 H   0  0  0  0  0  0  0  0  0  0  0  0
    9.3388  -12.5970    2.4858 H   0  0  0  0  0  0  0  0  0  0  0  0
    9.8531  -12.6319    0.8080 H   0  0  0  0  0  0  0  0  0  0  0  0
    7.4782  -11.4760    1.6270 H   0  0  0  0  0  0  0  0  0  0  0  0
    9.2817  -10.1956   -0.5151 H   0  0  0  0  0  0  0  0  0  0  0  0
    7.5478   -9.9356   -0.3620 H   0  0  0  0  0  0  0  0  0  0  0  0
    6.2017  -12.3585   -0.0286 H   0  0  0  0  0  0  0  0  0  0  0  0
    5.8934  -14.5309   -1.1024 H   0  0  0  0  0  0  0  0  0  0  0  0
    6.7237  -16.0052   -2.5886 H   0  0  0  0  0  0  0  0  0  0  0  0
    9.4246  -13.8931   -3.4636 H   0  0  0  0  0  0  0  0  0  0  0  0
    9.8284  -11.7508   -2.2920 H   0  0  0  0  0  0  0  0  0  0  0  0
    6.7242   -7.1914    0.7305 H   0  0  0  0  0  0  0  0  0  0  0  0
    4.9065   -6.2430   -0.2883 H   0  0  0  0  0  0  0  0  0  0  0  0
  1  2  1  0  0  0  0
  1 38  1  0  0  0  0
  1 39  1  0  0  0  0
  1 40  1  0  0  0  0
  2  3  1  0  0  0  0
  3  4  2  0  0  0  0
  3  5  1  0  0  0  0
  5  6  1  0  0  0  0
  5 11  2  0  0  0  0
  6  7  2  0  0  0  0
  6 41  1  0  0  0  0
  7  8  1  0  0  0  0
  7 42  1  0  0  0  0
  8  9  2  0  0  0  0
  8 43  1  0  0  0  0
  9 10  1  0  0  0  0
  9 11  1  0  0  0  0
 10 44  1  0  0  0  0
 11 12  1  0  0  0  0
 12 13  2  0  0  0  0
 12 14  1  0  0  0  0
 14 15  1  0  0  0  0
 14 36  2  0  0  0  0
 15 16  1  0  0  0  0
 15 17  2  0  0  0  0
 16 45  1  0  0  0  0
 17 18  1  0  0  0  0
 17 46  1  0  0  0  0
 18 19  1  0  0  0  0
 18 35  2  0  0  0  0
 19 20  2  0  0  0  0
 19 21  1  0  0  0  0
 21 22  1  0  0  0  0
 22 23  1  0  0  0  0
 22 26  1  0  0  0  0
 22 47  1  0  0  0  0
 23 24  1  0  0  0  0
 23 48  1  0  0  0  0
 23 49  1  0  0  0  0
 24 25  1  0  0  0  0
 24 50  1  0  0  0  0
 24 51  1  0  0  0  0
 25 26  1  0  0  0  0
 25 52  1  0  0  0  0
 25 53  1  0  0  0  0
 26 27  1  0  0  0  0
 26 54  1  0  0  0  0
 27 28  1  0  0  0  0
 27 55  1  0  0  0  0
 27 56  1  0  0  0  0
 28 29  1  0  0  0  0
 28 34  2  0  0  0  0
 29 30  2  0  0  0  0
 29 57  1  0  0  0  0
 30 31  1  0  0  0  0
 30 58  1  0  0  0  0
 31 32  1  0  0  0  0
 31 33  2  0  0  0  0
 32 59  1  0  0  0  0
 33 34  1  0  0  0  0
 33 60  1  0  0  0  0
 34 61  1  0  0  0  0
 35 36  1  0  0  0  0
 35 62  1  0  0  0  0
 36 37  1  0  0  0  0
 37 63  1  0  0  0  0
M  END
$$$$
