
 OpenBabel01112422113D

 41 45  0  0  0  0  0  0  0  0999 V2000
   -0.6541    1.3886    0.7342 C   0  0  0  0  0  0  0  0  0  0  0  0
    0.1406    0.2674    0.2831 N   0  0  0  0  0  0  0  0  0  0  0  0
   -0.1387   -1.0474    0.5507 C   0  0  0  0  0  0  0  0  0  0  0  0
    0.8528   -1.8099   -0.0272 C   0  0  0  0  0  0  0  0  0  0  0  0
    0.9139   -3.2248    0.0218 C   0  0  0  0  0  0  0  0  0  0  0  0
    1.4686   -4.0193    0.9485 C   0  0  0  0  0  0  0  0  0  0  0  0
    2.1296   -3.6690    2.1492 C   0  0  0  0  0  0  0  0  0  0  0  0
    3.4742   -3.3910    2.2518 C   0  0  0  0  0  0  0  0  0  0  0  0
    3.7364   -3.0984    3.5650 N   0  0  0  0  0  0  0  0  0  0  0  0
    2.5881   -3.2054    4.3183 C   0  0  0  0  0  0  0  0  0  0  0  0
    2.3911   -3.0226    5.6924 C   0  0  0  0  0  0  0  0  0  0  0  0
    1.1025   -3.2255    6.1951 C   0  0  0  0  0  0  0  0  0  0  0  0
    0.0514   -3.5822    5.3538 C   0  0  0  0  0  0  0  0  0  0  0  0
    0.2614   -3.7468    3.9798 C   0  0  0  0  0  0  0  0  0  0  0  0
    1.5555   -3.5637    3.4492 C   0  0  0  0  0  0  0  0  0  0  0  0
    1.2663   -5.4179    0.5115 C   0  0  0  0  0  0  0  0  0  0  0  0
    1.6441   -6.4238    1.0833 O   0  0  0  0  0  0  0  0  0  0  0  0
    0.5890   -5.3769   -0.6533 N   0  0  0  0  0  0  0  0  0  0  0  0
    0.3295   -4.1026   -1.0156 C   0  0  0  0  0  0  0  0  0  0  0  0
   -0.2844   -3.7563   -2.0075 O   0  0  0  0  0  0  0  0  0  0  0  0
    1.7716   -0.9267   -0.6671 C   0  0  0  0  0  0  0  0  0  0  0  0
    2.9650   -1.1032   -1.3990 C   0  0  0  0  0  0  0  0  0  0  0  0
    3.6298    0.0133   -1.9189 C   0  0  0  0  0  0  0  0  0  0  0  0
    3.1234    1.2942   -1.7222 C   0  0  0  0  0  0  0  0  0  0  0  0
    1.9482    1.4980   -0.9947 C   0  0  0  0  0  0  0  0  0  0  0  0
    1.2912    0.3725   -0.4709 C   0  0  0  0  0  0  0  0  0  0  0  0
   -1.5154    1.0250    1.3005 H   0  0  0  0  0  0  0  0  0  0  0  0
   -0.9951    1.9467   -0.1414 H   0  0  0  0  0  0  0  0  0  0  0  0
   -0.0292    2.0170    1.3740 H   0  0  0  0  0  0  0  0  0  0  0  0
   -1.0133   -1.3298    1.1228 H   0  0  0  0  0  0  0  0  0  0  0  0
    4.2674   -3.3810    1.5163 H   0  0  0  0  0  0  0  0  0  0  0  0
    4.6441   -2.8570    3.9377 H   0  0  0  0  0  0  0  0  0  0  0  0
    3.2072   -2.7457    6.3517 H   0  0  0  0  0  0  0  0  0  0  0  0
    0.9202   -3.1080    7.2610 H   0  0  0  0  0  0  0  0  0  0  0  0
   -0.9413   -3.7420    5.7675 H   0  0  0  0  0  0  0  0  0  0  0  0
   -0.5657   -4.0281    3.3352 H   0  0  0  0  0  0  0  0  0  0  0  0
    0.3068   -6.1875   -1.1774 H   0  0  0  0  0  0  0  0  0  0  0  0
    3.3685   -2.0973   -1.5650 H   0  0  0  0  0  0  0  0  0  0  0  0
    4.5468   -0.1236   -2.4863 H   0  0  0  0  0  0  0  0  0  0  0  0
    3.6474    2.1501   -2.1413 H   0  0  0  0  0  0  0  0  0  0  0  0
    1.5595    2.5006   -0.8484 H   0  0  0  0  0  0  0  0  0  0  0  0
  1  2  1  0  0  0  0
  1 27  1  0  0  0  0
  1 28  1  0  0  0  0
  1 29  1  0  0  0  0
  2  3  1  0  0  0  0
  2 26  1  0  0  0  0
  3  4  2  0  0  0  0
  3 30  1  0  0  0  0
  4  5  1  0  0  0  0
  4 21  1  0  0  0  0
  5  6  2  0  0  0  0
  5 19  1  0  0  0  0
  6  7  1  0  0  0  0
  6 16  1  0  0  0  0
  7  8  2  0  0  0  0
  7 15  1  0  0  0  0
  8  9  1  0  0  0  0
  8 31  1  0  0  0  0
  9 10  1  0  0  0  0
  9 32  1  0  0  0  0
 10 11  1  0  0  0  0
 10 15  2  0  0  0  0
 11 12  2  0  0  0  0
 11 33  1  0  0  0  0
 12 13  1  0  0  0  0
 12 34  1  0  0  0  0
 13 14  2  0  0  0  0
 13 35  1  0  0  0  0
 14 15  1  0  0  0  0
 14 36  1  0  0  0  0
 16 17  2  0  0  0  0
 16 18  1  0  0  0  0
 18 19  1  0  0  0  0
 18 37  1  0  0  0  0
 19 20  2  0  0  0  0
 21 22  1  0  0  0  0
 21 26  2  0  0  0  0
 22 23  2  0  0  0  0
 22 38  1  0  0  0  0
 23 24  1  0  0  0  0
 23 39  1  0  0  0  0
 24 25  2  0  0  0  0
 24 40  1  0  0  0  0
 25 26  1  0  0  0  0
 25 41  1  0  0  0  0
M  END
$$$$
