
 OpenBabel01112422553D

 42 45  0  0  0  0  0  0  0  0999 V2000
    1.1560   -0.6611   -0.1990 N   0  0  0  0  0  0  0  0  0  0  0  0
    2.2915   -0.4294   -0.1514 C   0  0  0  0  0  0  0  0  0  0  0  0
    3.7079   -0.2161   -0.1379 C   0  0  0  0  0  0  0  0  0  0  0  0
    4.5101   -1.3431   -0.1571 C   0  0  0  0  0  0  0  0  0  0  0  0
    5.8567   -1.3151   -0.1317 N   0  0  0  0  0  0  0  0  0  0  0  0
    6.4788   -0.1232   -0.0868 C   0  0  0  0  0  0  0  0  0  0  0  0
    7.8718   -0.0872   -0.0902 C   0  0  0  0  0  0  0  0  0  0  0  0
    8.5677   -1.2369   -0.1124 F   0  0  0  0  0  0  0  0  0  0  0  0
    8.5964    1.1011   -0.0759 C   0  0  0  0  0  0  0  0  0  0  0  0
    7.9421    2.3237   -0.0134 C   0  0  0  0  0  0  0  0  0  0  0  0
    8.7156    3.4820   -0.0180 N   0  0  0  0  0  0  0  0  0  0  0  0
    8.1853    4.7537    0.4882 C   0  0  0  0  0  0  0  0  0  0  0  0
    7.2976    5.5717   -0.4039 C   0  0  0  0  0  0  0  0  0  0  0  0
    7.5785    6.1511   -1.6260 C   0  0  0  0  0  0  0  0  0  0  0  0
    6.4411    6.8249   -1.9784 N   0  0  0  0  0  0  0  0  0  0  0  0
    5.5234    6.6340   -0.9852 C   0  0  0  0  0  0  0  0  0  0  0  0
    5.9986    5.8662   -0.0332 N   0  0  0  0  0  0  0  0  0  0  0  0
    6.5415    2.3024   -0.0051 C   0  0  0  0  0  0  0  0  0  0  0  0
    5.7728    1.0998   -0.0479 C   0  0  0  0  0  0  0  0  0  0  0  0
    4.3319    1.0431   -0.0679 C   0  0  0  0  0  0  0  0  0  0  0  0
    3.5750    2.2486    0.0393 N   0  0  0  0  0  0  0  0  0  0  0  0
    2.3947    2.6545   -0.6214 C   0  0  0  0  0  0  0  0  0  0  0  0
    1.5477    3.5654    0.0331 C   0  0  0  0  0  0  0  0  0  0  0  0
    0.3992    4.0553   -0.5892 C   0  0  0  0  0  0  0  0  0  0  0  0
    0.0968    3.6395   -1.8827 C   0  0  0  0  0  0  0  0  0  0  0  0
   -0.9947    4.1363   -2.4811 F   0  0  0  0  0  0  0  0  0  0  0  0
    0.9241    2.7375   -2.5468 C   0  0  0  0  0  0  0  0  0  0  0  0
    0.5657    2.2414   -4.1587 Cl  0  0  0  0  0  0  0  0  0  0  0  0
    2.0752    2.2489   -1.9237 C   0  0  0  0  0  0  0  0  0  0  0  0
    4.0854   -2.3451   -0.1876 H   0  0  0  0  0  0  0  0  0  0  0  0
    9.6820    1.0508   -0.0835 H   0  0  0  0  0  0  0  0  0  0  0  0
    9.1922    3.6032   -0.9087 H   0  0  0  0  0  0  0  0  0  0  0  0
    9.0542    5.3794    0.7291 H   0  0  0  0  0  0  0  0  0  0  0  0
    7.6816    4.5833    1.4489 H   0  0  0  0  0  0  0  0  0  0  0  0
    8.4652    6.1578   -2.2440 H   0  0  0  0  0  0  0  0  0  0  0  0
    6.3024    7.3797   -2.8128 H   0  0  0  0  0  0  0  0  0  0  0  0
    4.5378    7.0802   -1.0102 H   0  0  0  0  0  0  0  0  0  0  0  0
    6.0258    3.2555    0.0061 H   0  0  0  0  0  0  0  0  0  0  0  0
    4.1403    3.0751    0.2190 H   0  0  0  0  0  0  0  0  0  0  0  0
    1.7789    3.8891    1.0466 H   0  0  0  0  0  0  0  0  0  0  0  0
   -0.2544    4.7571   -0.0830 H   0  0  0  0  0  0  0  0  0  0  0  0
    2.7285    1.5689   -2.4641 H   0  0  0  0  0  0  0  0  0  0  0  0
  1  2  3  0  0  0  0
  2  3  1  0  0  0  0
  3  4  1  0  0  0  0
  3 20  2  0  0  0  0
  4  5  2  0  0  0  0
  4 30  1  0  0  0  0
  5  6  1  0  0  0  0
  6  7  1  0  0  0  0
  6 19  2  0  0  0  0
  7  8  1  0  0  0  0
  7  9  2  0  0  0  0
  9 10  1  0  0  0  0
  9 31  1  0  0  0  0
 10 11  1  0  0  0  0
 10 18  2  0  0  0  0
 11 12  1  0  0  0  0
 11 32  1  0  0  0  0
 12 13  1  0  0  0  0
 12 33  1  0  0  0  0
 12 34  1  0  0  0  0
 13 14  2  0  0  0  0
 13 17  1  0  0  0  0
 14 15  1  0  0  0  0
 14 35  1  0  0  0  0
 15 16  1  0  0  0  0
 15 36  1  0  0  0  0
 16 17  2  0  0  0  0
 16 37  1  0  0  0  0
 18 19  1  0  0  0  0
 18 38  1  0  0  0  0
 19 20  1  0  0  0  0
 20 21  1  0  0  0  0
 21 22  1  0  0  0  0
 21 39  1  0  0  0  0
 22 23  1  0  0  0  0
 22 29  2  0  0  0  0
 23 24  2  0  0  0  0
 23 40  1  0  0  0  0
 24 25  1  0  0  0  0
 24 41  1  0  0  0  0
 25 26  1  0  0  0  0
 25 27  2  0  0  0  0
 27 28  1  0  0  0  0
 27 29  1  0  0  0  0
 29 42  1  0  0  0  0
M  END
$$$$
