
 OpenBabel01112422413D

 39 42  0  0  0  0  0  0  0  0999 V2000
    0.9597    0.1625   -0.1401 O   0  0  0  0  0  0  0  0  0  0  0  0
    2.3266    0.1166   -0.1000 C   0  0  0  0  0  0  0  0  0  0  0  0
    2.9851   -1.1152   -0.1183 C   0  0  0  0  0  0  0  0  0  0  0  0
    4.3958   -1.1450   -0.0608 C   0  0  0  0  0  0  0  0  0  0  0  0
    5.3516   -2.2088   -0.0578 C   0  0  0  0  0  0  0  0  0  0  0  0
    5.2430   -3.6150   -0.1507 C   0  0  0  0  0  0  0  0  0  0  0  0
    6.3869   -4.4172   -0.0652 C   0  0  0  0  0  0  0  0  0  0  0  0
    7.6207   -3.8258    0.1516 C   0  0  0  0  0  0  0  0  0  0  0  0
    8.7607   -4.5769    0.2748 O   0  0  0  0  0  0  0  0  0  0  0  0
    7.7551   -2.4383    0.2566 C   0  0  0  0  0  0  0  0  0  0  0  0
    8.9891   -1.9092    0.5461 O   0  0  0  0  0  0  0  0  0  0  0  0
    6.6171   -1.6364    0.1034 C   0  0  0  0  0  0  0  0  0  0  0  0
    6.4426   -0.2630    0.1000 N   0  0  0  0  0  0  0  0  0  0  0  0
    7.5276    0.7130    0.0235 C   0  0  0  0  0  0  0  0  0  0  0  0
    7.9850    1.4053    1.2949 C   0  0  0  0  0  0  0  0  0  0  0  0
    7.6575    1.0548    2.6202 C   0  0  0  0  0  0  0  0  0  0  0  0
    6.6441   -0.2634    3.0904 Cl  0  0  0  0  0  0  0  0  0  0  0  0
    8.1575    1.7908    3.7086 C   0  0  0  0  0  0  0  0  0  0  0  0
    9.0052    2.8694    3.5208 C   0  0  0  0  0  0  0  0  0  0  0  0
    9.3700    3.2246    2.2280 C   0  0  0  0  0  0  0  0  0  0  0  0
    8.8745    2.5009    1.1367 C   0  0  0  0  0  0  0  0  0  0  0  0
    9.4134    3.0308   -0.4267 Cl  0  0  0  0  0  0  0  0  0  0  0  0
    5.0966    0.0592    0.0232 C   0  0  0  0  0  0  0  0  0  0  0  0
    4.4411    1.3055    0.0287 C   0  0  0  0  0  0  0  0  0  0  0  0
    3.0460    1.3058   -0.0293 C   0  0  0  0  0  0  0  0  0  0  0  0
    2.3639    2.4936   -0.0200 O   0  0  0  0  0  0  0  0  0  0  0  0
    0.6144   -0.7427   -0.1193 H   0  0  0  0  0  0  0  0  0  0  0  0
    2.4319   -2.0479   -0.1667 H   0  0  0  0  0  0  0  0  0  0  0  0
    4.2678   -4.0744   -0.2863 H   0  0  0  0  0  0  0  0  0  0  0  0
    6.2815   -5.4948   -0.1477 H   0  0  0  0  0  0  0  0  0  0  0  0
    8.5421   -5.4926    0.0320 H   0  0  0  0  0  0  0  0  0  0  0  0
    9.5465   -2.6938    0.7221 H   0  0  0  0  0  0  0  0  0  0  0  0
    7.1583    1.4728   -0.6789 H   0  0  0  0  0  0  0  0  0  0  0  0
    8.3755    0.2300   -0.4748 H   0  0  0  0  0  0  0  0  0  0  0  0
    7.8839    1.5122    4.7245 H   0  0  0  0  0  0  0  0  0  0  0  0
    9.3845    3.4296    4.3706 H   0  0  0  0  0  0  0  0  0  0  0  0
   10.0460    4.0613    2.0733 H   0  0  0  0  0  0  0  0  0  0  0  0
    5.0019    2.2299    0.0992 H   0  0  0  0  0  0  0  0  0  0  0  0
    2.9997    3.2210    0.0236 H   0  0  0  0  0  0  0  0  0  0  0  0
  1  2  1  0  0  0  0
  1 27  1  0  0  0  0
  2  3  1  0  0  0  0
  2 25  2  0  0  0  0
  3  4  2  0  0  0  0
  3 28  1  0  0  0  0
  4  5  1  0  0  0  0
  4 23  1  0  0  0  0
  5  6  1  0  0  0  0
  5 12  2  0  0  0  0
  6  7  2  0  0  0  0
  6 29  1  0  0  0  0
  7  8  1  0  0  0  0
  7 30  1  0  0  0  0
  8  9  1  0  0  0  0
  8 10  2  0  0  0  0
  9 31  1  0  0  0  0
 10 11  1  0  0  0  0
 10 12  1  0  0  0  0
 11 32  1  0  0  0  0
 12 13  1  0  0  0  0
 13 14  1  0  0  0  0
 13 23  1  0  0  0  0
 14 15  1  0  0  0  0
 14 33  1  0  0  0  0
 14 34  1  0  0  0  0
 15 16  1  0  0  0  0
 15 21  2  0  0  0  0
 16 17  1  0  0  0  0
 16 18  2  0  0  0  0
 18 19  1  0  0  0  0
 18 35  1  0  0  0  0
 19 20  2  0  0  0  0
 19 36  1  0  0  0  0
 20 21  1  0  0  0  0
 20 37  1  0  0  0  0
 21 22  1  0  0  0  0
 23 24  2  0  0  0  0
 24 25  1  0  0  0  0
 24 38  1  0  0  0  0
 25 26  1  0  0  0  0
 26 39  1  0  0  0  0
M  END
$$$$
