
 OpenBabel01112422553D

 52 55  0  0  1  0  0  0  0  0999 V2000
   -2.1499    1.1215    1.8719 C   0  0  0  0  0  0  0  0  0  0  0  0
   -1.3426    0.1366    1.1138 C   0  0  0  0  0  0  0  0  0  0  0  0
   -1.8196   -1.0831    0.8507 N   0  0  0  0  0  0  0  0  0  0  0  0
   -0.8336   -1.6798    0.1644 N   0  0  0  0  0  0  0  0  0  0  0  0
    0.2758   -0.8918   -0.0211 C   0  0  0  0  0  0  0  0  0  0  0  0
    1.4919   -1.1297   -0.6568 C   0  0  0  0  0  0  0  0  0  0  0  0
    2.4280   -0.0858   -0.6503 C   0  0  0  0  0  0  0  0  0  0  0  0
    2.1708    1.1613   -0.0485 C   0  0  0  0  0  0  0  0  0  0  0  0
    3.1854    2.2380   -0.0403 C   0  0  0  0  0  0  0  0  0  0  0  0
    4.1121    2.4109   -1.0719 C   0  0  0  0  0  0  0  0  0  0  0  0
    5.0682    3.3696   -1.1057 N   0  0  0  0  0  0  0  0  0  0  0  0
    5.1060    4.2165   -0.0536 C   0  0  0  0  0  0  0  0  0  0  0  0
    4.2413    4.1562    1.0301 C   0  0  0  0  0  0  0  0  0  0  0  0
    4.4229    5.0883    2.0075 O   0  0  0  0  0  0  0  0  0  0  0  0
    3.5260    5.0464    3.1263 C   0  0  0  0  0  0  0  0  0  0  0  0
    3.8993    6.1984    4.0848 C   0  0  1  0  0  0  0  0  0  0  0  0
    3.7705    7.4843    3.3672 N   0  0  0  0  0  0  0  0  0  0  0  0
    3.0315    6.1314    5.3624 C   0  0  0  0  0  0  0  0  0  0  0  0
    3.3529    7.1902    6.3950 C   0  0  0  0  0  0  0  0  0  0  0  0
    4.2642    6.9358    7.4272 C   0  0  0  0  0  0  0  0  0  0  0  0
    4.5801    7.9305    8.3550 C   0  0  0  0  0  0  0  0  0  0  0  0
    4.0177    9.2011    8.2397 C   0  0  0  0  0  0  0  0  0  0  0  0
    3.1257    9.4891    7.1984 C   0  0  0  0  0  0  0  0  0  0  0  0
    2.5945   10.8854    6.9930 C   0  0  0  0  0  0  0  0  0  0  0  0
    3.0937   11.7936    7.8793 F   0  0  0  0  0  0  0  0  0  0  0  0
    2.8895   11.3785    5.7572 F   0  0  0  0  0  0  0  0  0  0  0  0
    1.2394   10.9598    7.1092 F   0  0  0  0  0  0  0  0  0  0  0  0
    2.7725    8.4647    6.3045 C   0  0  0  0  0  0  0  0  0  0  0  0
    3.2792    3.1504    1.0252 C   0  0  0  0  0  0  0  0  0  0  0  0
    0.9149    1.3504    0.5683 C   0  0  0  0  0  0  0  0  0  0  0  0
   -0.0345    0.3120    0.5896 C   0  0  0  0  0  0  0  0  0  0  0  0
   -3.1367    0.7233    2.1293 H   0  0  0  0  0  0  0  0  0  0  0  0
   -2.2945    2.0317    1.2815 H   0  0  0  0  0  0  0  0  0  0  0  0
   -1.6414    1.3937    2.8028 H   0  0  0  0  0  0  0  0  0  0  0  0
   -0.9702   -2.6312   -0.1474 H   0  0  0  0  0  0  0  0  0  0  0  0
    1.7201   -2.0800   -1.1308 H   0  0  0  0  0  0  0  0  0  0  0  0
    3.3910   -0.2782   -1.1226 H   0  0  0  0  0  0  0  0  0  0  0  0
    4.1153    1.7647   -1.9460 H   0  0  0  0  0  0  0  0  0  0  0  0
    5.8815    4.9758   -0.1028 H   0  0  0  0  0  0  0  0  0  0  0  0
    3.6252    4.0867    3.6476 H   0  0  0  0  0  0  0  0  0  0  0  0
    2.4908    5.1761    2.7817 H   0  0  0  0  0  0  0  0  0  0  0  0
    4.9569    6.0938    4.3582 H   0  0  0  0  0  0  0  0  0  0  0  0
    2.8109    7.6124    3.0509 H   0  0  0  0  0  0  0  0  0  0  0  0
    4.3266    7.4140    2.5102 H   0  0  0  0  0  0  0  0  0  0  0  0
    3.1582    5.1443    5.8281 H   0  0  0  0  0  0  0  0  0  0  0  0
    1.9663    6.1959    5.1035 H   0  0  0  0  0  0  0  0  0  0  0  0
    4.7451    5.9640    7.5134 H   0  0  0  0  0  0  0  0  0  0  0  0
    5.2869    7.7235    9.1550 H   0  0  0  0  0  0  0  0  0  0  0  0
    4.2990    9.9756    8.9516 H   0  0  0  0  0  0  0  0  0  0  0  0
    2.0703    8.6790    5.4992 H   0  0  0  0  0  0  0  0  0  0  0  0
    2.5962    3.0490    1.8610 H   0  0  0  0  0  0  0  0  0  0  0  0
    0.6516    2.2956    1.0323 H   0  0  0  0  0  0  0  0  0  0  0  0
  1  2  1  0  0  0  0
  1 32  1  0  0  0  0
  1 33  1  0  0  0  0
  1 34  1  0  0  0  0
  2  3  2  0  0  0  0
  2 31  1  0  0  0  0
  3  4  1  0  0  0  0
  4  5  1  0  0  0  0
  4 35  1  0  0  0  0
  5  6  1  0  0  0  0
  5 31  2  0  0  0  0
  6  7  2  0  0  0  0
  6 36  1  0  0  0  0
  7  8  1  0  0  0  0
  7 37  1  0  0  0  0
  8  9  1  0  0  0  0
  8 30  2  0  0  0  0
  9 10  1  0  0  0  0
  9 29  2  0  0  0  0
 10 11  2  0  0  0  0
 10 38  1  0  0  0  0
 11 12  1  0  0  0  0
 12 13  2  0  0  0  0
 12 39  1  0  0  0  0
 13 14  1  0  0  0  0
 13 29  1  0  0  0  0
 14 15  1  0  0  0  0
 15 16  1  0  0  0  0
 15 40  1  0  0  0  0
 15 41  1  0  0  0  0
 16 17  1  0  0  0  0
 16 18  1  0  0  0  0
 16 42  1  1  0  0  0
 17 43  1  0  0  0  0
 17 44  1  0  0  0  0
 18 19  1  0  0  0  0
 18 45  1  0  0  0  0
 18 46  1  0  0  0  0
 19 20  1  0  0  0  0
 19 28  2  0  0  0  0
 20 21  2  0  0  0  0
 20 47  1  0  0  0  0
 21 22  1  0  0  0  0
 21 48  1  0  0  0  0
 22 23  2  0  0  0  0
 22 49  1  0  0  0  0
 23 24  1  0  0  0  0
 23 28  1  0  0  0  0
 24 25  1  0  0  0  0
 24 26  1  0  0  0  0
 24 27  1  0  0  0  0
 28 50  1  0  0  0  0
 29 51  1  0  0  0  0
 30 31  1  0  0  0  0
 30 52  1  0  0  0  0
M  END
$$$$
