
 OpenBabel01112422453D

 65 69  0  0  1  0  0  0  0  0999 V2000
    3.8937   -0.3466   -2.8940 O   0  0  0  0  0  0  0  0  0  0  0  0
    3.5184   -1.4151   -3.3637 C   0  0  0  0  0  0  0  0  0  0  0  0
    2.7216   -2.3103   -2.6883 N   0  0  0  0  0  0  0  0  0  0  0  0
    2.2331   -2.0325   -1.3493 C   0  0  2  0  0  0  0  0  0  0  0  0
    2.0047   -3.2861   -0.5484 C   0  0  0  0  0  0  0  0  0  0  0  0
    2.7904   -4.4269   -0.4784 C   0  0  0  0  0  0  0  0  0  0  0  0
    2.3817   -5.4652    0.3619 C   0  0  0  0  0  0  0  0  0  0  0  0
    1.2180   -5.3435    1.1369 C   0  0  0  0  0  0  0  0  0  0  0  0
    0.4442   -4.1835    1.0808 C   0  0  0  0  0  0  0  0  0  0  0  0
    0.8433   -3.1708    0.2260 C   0  0  0  0  0  0  0  0  0  0  0  0
    0.1873   -1.8456    0.0098 C   0  0  0  0  0  0  0  0  0  0  0  0
    0.7997   -1.4154   -1.3386 C   0  0  3  0  0  0  0  0  0  0  0  0
    0.8653    0.0102   -1.4241 O   0  0  0  0  0  0  0  0  0  0  0  0
   -0.2929    0.6459   -1.7307 C   0  0  0  0  0  0  0  0  0  0  0  0
   -1.3666    0.1210   -1.9698 O   0  0  0  0  0  0  0  0  0  0  0  0
   -0.0799    2.1148   -1.7028 C   0  0  0  0  0  0  0  0  0  0  0  0
   -1.1359    2.9739   -2.0239 C   0  0  0  0  0  0  0  0  0  0  0  0
   -0.9346    4.3603   -1.9998 C   0  0  0  0  0  0  0  0  0  0  0  0
   -1.9750    5.1626   -2.3892 O   0  0  0  0  0  0  0  0  0  0  0  0
    0.3065    4.9246   -1.6249 C   0  0  0  0  0  0  0  0  0  0  0  0
    0.4579    6.4150   -1.6068 C   0  0  0  0  0  0  0  0  0  0  0  0
   -0.4999    7.1093   -1.2636 O   0  0  0  0  0  0  0  0  0  0  0  0
    1.7463    7.1194   -1.8567 C   0  0  0  0  0  0  0  0  0  0  0  0
    2.6863    6.6380   -2.7919 C   0  0  0  0  0  0  0  0  0  0  0  0
    2.4954    5.5993   -3.6608 O   0  0  0  0  0  0  0  0  0  0  0  0
    3.9682    7.1887   -2.8709 C   0  0  0  0  0  0  0  0  0  0  0  0
    4.3206    8.2701   -2.0773 C   0  0  0  0  0  0  0  0  0  0  0  0
    3.3769    8.8217   -1.2187 C   0  0  0  0  0  0  0  0  0  0  0  0
    2.0886    8.2611   -1.0909 C   0  0  0  0  0  0  0  0  0  0  0  0
    1.2395    8.9741   -0.0832 C   0  0  0  0  0  0  0  0  0  0  0  0
    1.3683   10.1596    0.1527 O   0  0  0  0  0  0  0  0  0  0  0  0
    0.5184    8.1511    0.7041 O   0  0  0  0  0  0  0  0  0  0  0  0
    1.3346    4.0423   -1.2561 C   0  0  0  0  0  0  0  0  0  0  0  0
    2.5748    4.3692   -0.7874 O   0  0  0  0  0  0  0  0  0  0  0  0
    1.1502    2.6609   -1.3342 C   0  0  0  0  0  0  0  0  0  0  0  0
    3.9599   -1.8237   -4.7270 C   0  0  0  0  0  0  0  0  0  0  0  0
    5.2192   -1.4050   -5.1810 C   0  0  0  0  0  0  0  0  0  0  0  0
    5.6537   -1.7441   -6.4692 C   0  0  0  0  0  0  0  0  0  0  0  0
    4.8208   -2.4910   -7.2927 C   0  0  0  0  0  0  0  0  0  0  0  0
    5.1924   -2.8311   -8.5608 O   0  0  0  0  0  0  0  0  0  0  0  0
    3.5690   -2.9090   -6.8563 C   0  0  0  0  0  0  0  0  0  0  0  0
    3.1331   -2.5748   -5.5716 C   0  0  0  0  0  0  0  0  0  0  0  0
    2.5202   -3.2183   -3.0854 H   0  0  0  0  0  0  0  0  0  0  0  0
    2.9406   -1.3767   -0.8257 H   0  0  0  0  0  0  0  0  0  0  0  0
    3.7039   -4.5174   -1.0583 H   0  0  0  0  0  0  0  0  0  0  0  0
    2.9748   -6.3746    0.4249 H   0  0  0  0  0  0  0  0  0  0  0  0
    0.9204   -6.1584    1.7925 H   0  0  0  0  0  0  0  0  0  0  0  0
   -0.4483   -4.0846    1.6908 H   0  0  0  0  0  0  0  0  0  0  0  0
    0.4495   -1.1486    0.8150 H   0  0  0  0  0  0  0  0  0  0  0  0
   -0.9022   -1.9236   -0.0540 H   0  0  0  0  0  0  0  0  0  0  0  0
    0.2180   -1.8246   -2.1771 H   0  0  0  0  0  0  0  0  0  0  0  0
   -2.0997    2.5545   -2.3063 H   0  0  0  0  0  0  0  0  0  0  0  0
   -2.8106    4.6643   -2.3833 H   0  0  0  0  0  0  0  0  0  0  0  0
    1.5746    5.2969   -3.6977 H   0  0  0  0  0  0  0  0  0  0  0  0
    4.7014    6.7587   -3.5518 H   0  0  0  0  0  0  0  0  0  0  0  0
    5.3229    8.6893   -2.1310 H   0  0  0  0  0  0  0  0  0  0  0  0
    3.6589    9.6872   -0.6172 H   0  0  0  0  0  0  0  0  0  0  0  0
   -0.1790    7.7189    0.1540 H   0  0  0  0  0  0  0  0  0  0  0  0
    2.7097    5.3159   -0.6489 H   0  0  0  0  0  0  0  0  0  0  0  0
    1.9933    2.0172   -1.0852 H   0  0  0  0  0  0  0  0  0  0  0  0
    5.8632   -0.8129   -4.5345 H   0  0  0  0  0  0  0  0  0  0  0  0
    6.6316   -1.4133   -6.8016 H   0  0  0  0  0  0  0  0  0  0  0  0
    6.0609   -2.4375   -8.7499 H   0  0  0  0  0  0  0  0  0  0  0  0
    2.9267   -3.4810   -7.5211 H   0  0  0  0  0  0  0  0  0  0  0  0
    2.1366   -2.8769   -5.2611 H   0  0  0  0  0  0  0  0  0  0  0  0
  1  2  2  0  0  0  0
  2  3  1  0  0  0  0
  2 36  1  0  0  0  0
  3 43  1  0  0  0  0
  4  5  1  0  0  0  0
  4 12  1  0  0  0  0
  4  3  1  0  0  0  0
  4 44  1  1  0  0  0
  5  6  1  0  0  0  0
  5 10  2  0  0  0  0
  6  7  2  0  0  0  0
  6 45  1  0  0  0  0
  7  8  1  0  0  0  0
  7 46  1  0  0  0  0
  8  9  2  0  0  0  0
  8 47  1  0  0  0  0
  9 10  1  0  0  0  0
  9 48  1  0  0  0  0
 10 11  1  0  0  0  0
 11 12  1  0  0  0  0
 11 49  1  0  0  0  0
 11 50  1  0  0  0  0
 12 13  1  0  0  0  0
 12 51  1  0  0  0  0
 13 14  1  0  0  0  0
 14 15  2  0  0  0  0
 14 16  1  0  0  0  0
 16 17  1  0  0  0  0
 16 35  2  0  0  0  0
 17 18  2  0  0  0  0
 17 52  1  0  0  0  0
 18 19  1  0  0  0  0
 18 20  1  0  0  0  0
 19 53  1  0  0  0  0
 20 21  1  0  0  0  0
 20 33  2  0  0  0  0
 21 22  2  0  0  0  0
 21 23  1  0  0  0  0
 23 24  1  0  0  0  0
 23 29  2  0  0  0  0
 24 25  1  0  0  0  0
 24 26  2  0  0  0  0
 25 54  1  0  0  0  0
 26 27  1  0  0  0  0
 26 55  1  0  0  0  0
 27 28  2  0  0  0  0
 27 56  1  0  0  0  0
 28 29  1  0  0  0  0
 28 57  1  0  0  0  0
 29 30  1  0  0  0  0
 30 31  2  0  0  0  0
 30 32  1  0  0  0  0
 32 58  1  0  0  0  0
 33 34  1  0  0  0  0
 33 35  1  0  0  0  0
 34 59  1  0  0  0  0
 35 60  1  0  0  0  0
 36 37  1  0  0  0  0
 36 42  2  0  0  0  0
 37 38  2  0  0  0  0
 37 61  1  0  0  0  0
 38 39  1  0  0  0  0
 38 62  1  0  0  0  0
 39 40  1  0  0  0  0
 39 41  2  0  0  0  0
 40 63  1  0  0  0  0
 41 42  1  0  0  0  0
 41 64  1  0  0  0  0
 42 65  1  0  0  0  0
M  END
$$$$
