
 OpenBabel01112422113D

 43 45  0  0  0  0  0  0  0  0999 V2000
    4.5995   -3.8275    4.0190 N   0  0  0  0  0  0  0  0  0  0  0  0
    4.8262   -2.7714    3.0419 C   0  0  0  0  0  0  0  0  0  0  0  0
    5.4016   -1.5319    3.7280 C   0  0  0  0  0  0  0  0  0  0  0  0
    5.6441   -0.4154    2.7140 C   0  0  0  0  0  0  0  0  0  0  0  0
    6.2215    0.8412    3.3679 C   0  0  0  0  0  0  0  0  0  0  0  0
    6.4398    1.9278    2.3131 C   0  0  0  0  0  0  0  0  0  0  0  0
    6.9921    3.1471    2.9153 N   0  0  0  0  0  0  0  0  0  0  0  0
    8.3705    3.3192    2.9988 C   0  0  0  0  0  0  0  0  0  0  0  0
    9.3295    3.3838    2.0655 C   0  0  0  0  0  0  0  0  0  0  0  0
    9.1314    3.3843    0.6716 C   0  0  0  0  0  0  0  0  0  0  0  0
    9.8612    2.8920   -0.3881 C   0  0  0  0  0  0  0  0  0  0  0  0
    9.2012    3.2679   -1.5875 C   0  0  0  0  0  0  0  0  0  0  0  0
    9.4785    3.0639   -2.9522 C   0  0  0  0  0  0  0  0  0  0  0  0
    8.6126    3.5942   -3.9097 C   0  0  0  0  0  0  0  0  0  0  0  0
    7.4884    4.3253   -3.5269 C   0  0  0  0  0  0  0  0  0  0  0  0
    7.1942    4.5437   -2.1760 C   0  0  0  0  0  0  0  0  0  0  0  0
    8.0672    3.9950   -1.2291 C   0  0  0  0  0  0  0  0  0  0  0  0
    8.0355    4.0341    0.1459 N   0  0  0  0  0  0  0  0  0  0  0  0
   10.6360    3.4987    2.7509 C   0  0  0  0  0  0  0  0  0  0  0  0
   11.7382    3.5013    2.2301 O   0  0  0  0  0  0  0  0  0  0  0  0
   10.3803    3.5913    4.0723 N   0  0  0  0  0  0  0  0  0  0  0  0
    9.0565    3.4902    4.3127 C   0  0  0  0  0  0  0  0  0  0  0  0
    8.4915    3.5149    5.3897 O   0  0  0  0  0  0  0  0  0  0  0  0
    4.1715   -4.6301    3.5602 H   0  0  0  0  0  0  0  0  0  0  0  0
    3.9322   -3.5095    4.7211 H   0  0  0  0  0  0  0  0  0  0  0  0
    3.8812   -2.5247    2.5453 H   0  0  0  0  0  0  0  0  0  0  0  0
    5.5201   -3.1339    2.2761 H   0  0  0  0  0  0  0  0  0  0  0  0
    6.3449   -1.7865    4.2268 H   0  0  0  0  0  0  0  0  0  0  0  0
    4.7099   -1.1782    4.5027 H   0  0  0  0  0  0  0  0  0  0  0  0
    4.6999   -0.1641    2.2159 H   0  0  0  0  0  0  0  0  0  0  0  0
    6.3329   -0.7712    1.9379 H   0  0  0  0  0  0  0  0  0  0  0  0
    7.1685    0.6011    3.8676 H   0  0  0  0  0  0  0  0  0  0  0  0
    5.5379    1.2064    4.1448 H   0  0  0  0  0  0  0  0  0  0  0  0
    5.4854    2.1783    1.8382 H   0  0  0  0  0  0  0  0  0  0  0  0
    7.0978    1.5427    1.5252 H   0  0  0  0  0  0  0  0  0  0  0  0
    6.5720    3.3264    3.8331 H   0  0  0  0  0  0  0  0  0  0  0  0
   10.7859    2.3338   -0.3111 H   0  0  0  0  0  0  0  0  0  0  0  0
   10.3605    2.5072   -3.2514 H   0  0  0  0  0  0  0  0  0  0  0  0
    8.8238    3.4376   -4.9642 H   0  0  0  0  0  0  0  0  0  0  0  0
    6.8315    4.7339   -4.2913 H   0  0  0  0  0  0  0  0  0  0  0  0
    6.3232    5.1217   -1.8840 H   0  0  0  0  0  0  0  0  0  0  0  0
    7.3125    4.4819    0.6960 H   0  0  0  0  0  0  0  0  0  0  0  0
   11.0851    3.6897    4.7805 H   0  0  0  0  0  0  0  0  0  0  0  0
  1  2  1  0  0  0  0
  1 24  1  0  0  0  0
  1 25  1  0  0  0  0
  2  3  1  0  0  0  0
  2 26  1  0  0  0  0
  2 27  1  0  0  0  0
  3  4  1  0  0  0  0
  3 28  1  0  0  0  0
  3 29  1  0  0  0  0
  4  5  1  0  0  0  0
  4 30  1  0  0  0  0
  4 31  1  0  0  0  0
  5  6  1  0  0  0  0
  5 32  1  0  0  0  0
  5 33  1  0  0  0  0
  6  7  1  0  0  0  0
  6 34  1  0  0  0  0
  6 35  1  0  0  0  0
  7  8  1  0  0  0  0
  7 36  1  0  0  0  0
  8  9  2  0  0  0  0
  8 22  1  0  0  0  0
  9 10  1  0  0  0  0
  9 19  1  0  0  0  0
 10 11  2  0  0  0  0
 10 18  1  0  0  0  0
 11 12  1  0  0  0  0
 11 37  1  0  0  0  0
 12 13  1  0  0  0  0
 12 17  2  0  0  0  0
 13 14  2  0  0  0  0
 13 38  1  0  0  0  0
 14 15  1  0  0  0  0
 14 39  1  0  0  0  0
 15 16  2  0  0  0  0
 15 40  1  0  0  0  0
 16 17  1  0  0  0  0
 16 41  1  0  0  0  0
 17 18  1  0  0  0  0
 18 42  1  0  0  0  0
 19 20  2  0  0  0  0
 19 21  1  0  0  0  0
 21 22  1  0  0  0  0
 21 43  1  0  0  0  0
 22 23  2  0  0  0  0
M  END
$$$$
