
 OpenBabel01112422143D

 46 48  0  0  0  0  0  0  0  0999 V2000
    2.0163    2.1996   -4.9797 N   0  0  0  0  0  0  0  0  0  0  0  0
    3.4348    2.1925   -4.6473 C   0  0  0  0  0  0  0  0  0  0  0  0
    3.6666    2.8781   -3.3038 C   0  0  0  0  0  0  0  0  0  0  0  0
    5.1523    2.8770   -2.9397 C   0  0  0  0  0  0  0  0  0  0  0  0
    5.3824    3.5596   -1.5945 C   0  0  0  0  0  0  0  0  0  0  0  0
    6.8604    3.5679   -1.2072 C   0  0  0  0  0  0  0  0  0  0  0  0
    7.0457    4.2517    0.1471 C   0  0  0  0  0  0  0  0  0  0  0  0
    8.4641    4.2747    0.5291 N   0  0  0  0  0  0  0  0  0  0  0  0
    9.0914    5.4936    0.7559 C   0  0  0  0  0  0  0  0  0  0  0  0
    8.8524    6.4854    1.6255 C   0  0  0  0  0  0  0  0  0  0  0  0
    7.8960    6.4730    2.6559 C   0  0  0  0  0  0  0  0  0  0  0  0
    7.1141    7.4462    3.2383 C   0  0  0  0  0  0  0  0  0  0  0  0
    6.4101    6.8565    4.3207 C   0  0  0  0  0  0  0  0  0  0  0  0
    5.5002    7.3536    5.2732 C   0  0  0  0  0  0  0  0  0  0  0  0
    4.9909    6.4880    6.2441 C   0  0  0  0  0  0  0  0  0  0  0  0
    5.3811    5.1504    6.2817 C   0  0  0  0  0  0  0  0  0  0  0  0
    6.2881    4.6350    5.3490 C   0  0  0  0  0  0  0  0  0  0  0  0
    6.7786    5.5135    4.3751 C   0  0  0  0  0  0  0  0  0  0  0  0
    7.6606    5.2988    3.3409 N   0  0  0  0  0  0  0  0  0  0  0  0
    9.7989    7.5876    1.3455 C   0  0  0  0  0  0  0  0  0  0  0  0
    9.8306    8.6799    1.8777 O   0  0  0  0  0  0  0  0  0  0  0  0
   10.6250    7.1552    0.3675 N   0  0  0  0  0  0  0  0  0  0  0  0
   10.2688    5.9228   -0.0505 C   0  0  0  0  0  0  0  0  0  0  0  0
   10.7818    5.2595   -0.9344 O   0  0  0  0  0  0  0  0  0  0  0  0
    1.8839    1.7811   -5.8996 H   0  0  0  0  0  0  0  0  0  0  0  0
    1.6852    3.1608   -5.0537 H   0  0  0  0  0  0  0  0  0  0  0  0
    3.9965    2.7058   -5.4353 H   0  0  0  0  0  0  0  0  0  0  0  0
    3.7878    1.1566   -4.6053 H   0  0  0  0  0  0  0  0  0  0  0  0
    3.0964    2.3642   -2.5192 H   0  0  0  0  0  0  0  0  0  0  0  0
    3.3001    3.9120   -3.3424 H   0  0  0  0  0  0  0  0  0  0  0  0
    5.7234    3.3952   -3.7195 H   0  0  0  0  0  0  0  0  0  0  0  0
    5.5211    1.8452   -2.8975 H   0  0  0  0  0  0  0  0  0  0  0  0
    4.8059    3.0420   -0.8181 H   0  0  0  0  0  0  0  0  0  0  0  0
    5.0099    4.5905   -1.6391 H   0  0  0  0  0  0  0  0  0  0  0  0
    7.4455    4.0912   -1.9747 H   0  0  0  0  0  0  0  0  0  0  0  0
    7.2430    2.5408   -1.1627 H   0  0  0  0  0  0  0  0  0  0  0  0
    6.4795    3.7159    0.9169 H   0  0  0  0  0  0  0  0  0  0  0  0
    6.6378    5.2692    0.0896 H   0  0  0  0  0  0  0  0  0  0  0  0
    9.0358    3.7179   -0.1149 H   0  0  0  0  0  0  0  0  0  0  0  0
    7.0723    8.4846    2.9348 H   0  0  0  0  0  0  0  0  0  0  0  0
    5.2064    8.3974    5.2535 H   0  0  0  0  0  0  0  0  0  0  0  0
    4.2863    6.8684    6.9793 H   0  0  0  0  0  0  0  0  0  0  0  0
    4.9752    4.4970    7.0503 H   0  0  0  0  0  0  0  0  0  0  0  0
    6.5972    3.5957    5.3887 H   0  0  0  0  0  0  0  0  0  0  0  0
    8.0946    4.4103    3.1258 H   0  0  0  0  0  0  0  0  0  0  0  0
   11.3757    7.6980   -0.0208 H   0  0  0  0  0  0  0  0  0  0  0  0
  1  2  1  0  0  0  0
  1 25  1  0  0  0  0
  1 26  1  0  0  0  0
  2  3  1  0  0  0  0
  2 27  1  0  0  0  0
  2 28  1  0  0  0  0
  3  4  1  0  0  0  0
  3 29  1  0  0  0  0
  3 30  1  0  0  0  0
  4  5  1  0  0  0  0
  4 31  1  0  0  0  0
  4 32  1  0  0  0  0
  5  6  1  0  0  0  0
  5 33  1  0  0  0  0
  5 34  1  0  0  0  0
  6  7  1  0  0  0  0
  6 35  1  0  0  0  0
  6 36  1  0  0  0  0
  7  8  1  0  0  0  0
  7 37  1  0  0  0  0
  7 38  1  0  0  0  0
  8  9  1  0  0  0  0
  8 39  1  0  0  0  0
  9 10  2  0  0  0  0
  9 23  1  0  0  0  0
 10 11  1  0  0  0  0
 10 20  1  0  0  0  0
 11 12  2  0  0  0  0
 11 19  1  0  0  0  0
 12 13  1  0  0  0  0
 12 40  1  0  0  0  0
 13 14  1  0  0  0  0
 13 18  2  0  0  0  0
 14 15  2  0  0  0  0
 14 41  1  0  0  0  0
 15 16  1  0  0  0  0
 15 42  1  0  0  0  0
 16 17  2  0  0  0  0
 16 43  1  0  0  0  0
 17 18  1  0  0  0  0
 17 44  1  0  0  0  0
 18 19  1  0  0  0  0
 19 45  1  0  0  0  0
 20 21  2  0  0  0  0
 20 22  1  0  0  0  0
 22 23  1  0  0  0  0
 22 46  1  0  0  0  0
 23 24  2  0  0  0  0
M  END
$$$$
