
 OpenBabel01112422193D

 80 87  0  0  1  0  0  0  0  0999 V2000
    6.0312    0.8520    7.9165 C   0  0  0  0  0  0  0  0  0  0  0  0
    5.9675    0.1296    6.5839 C   0  0  0  0  0  0  0  0  0  0  0  0
    4.7880    0.6054    5.7392 C   0  0  0  0  0  0  0  0  0  0  0  0
    4.7405   -0.1764    4.4270 C   0  0  0  0  0  0  0  0  0  0  0  0
    3.5971    0.2675    3.5109 C   0  0  3  0  0  0  0  0  0  0  0  0
    3.8202    1.6498    3.2103 O   0  0  0  0  0  0  0  0  0  0  0  0
    3.5869   -0.6508    2.2548 C   0  0  0  0  0  0  0  0  0  0  0  0
    2.6243   -0.4014    1.1853 N   0  0  0  0  0  0  0  0  0  0  0  0
    2.7831    0.9948    0.6888 C   0  0  0  0  0  0  0  0  0  0  0  0
    1.1882   -0.7498    1.4321 C   0  0  1  0  0  0  0  0  0  0  0  0
    0.6609   -0.6163   -0.0263 C   0  0  0  0  0  0  0  0  0  0  0  0
   -0.7177   -1.1836   -0.0360 C   0  0  2  0  0  0  0  0  0  0  0  0
   -1.1303   -0.3795    1.1351 O   0  0  0  0  0  0  0  0  0  0  0  0
   -1.5185   -1.4885    1.8308 C   0  0  2  0  0  0  0  0  0  0  0  0
   -1.7397   -1.4193    3.3512 C   0  0  0  0  0  0  0  0  0  0  0  0
    0.3179   -2.1712    1.7855 C   0  0  1  0  0  0  0  0  0  0  0  0
    1.0782   -2.9126    0.7475 O   0  0  0  0  0  0  0  0  0  0  0  0
    0.9775   -4.1889    0.1577 C   0  0  0  0  0  0  0  0  0  0  0  0
   -2.8822   -1.3695    0.9264 N   0  0  0  0  0  0  0  0  0  0  0  0
   -3.7653   -0.2489    0.6319 C   0  0  0  0  0  0  0  0  0  0  0  0
   -3.8896    1.0137    1.2247 C   0  0  0  0  0  0  0  0  0  0  0  0
   -4.8808    1.8860    0.7414 C   0  0  0  0  0  0  0  0  0  0  0  0
   -5.7724    1.5264   -0.2741 C   0  0  0  0  0  0  0  0  0  0  0  0
   -5.5991    0.3534   -0.9882 C   0  0  0  0  0  0  0  0  0  0  0  0
   -4.5220   -0.4641   -0.6531 C   0  0  0  0  0  0  0  0  0  0  0  0
   -3.8679   -1.4155   -1.4206 C   0  0  0  0  0  0  0  0  0  0  0  0
   -4.1615   -2.2142   -2.5696 C   0  0  0  0  0  0  0  0  0  0  0  0
   -4.2864   -3.6130   -2.1504 C   0  0  0  0  0  0  0  0  0  0  0  0
   -3.1603   -3.8833   -1.2505 C   0  0  0  0  0  0  0  0  0  0  0  0
   -3.4579   -4.2080    0.0945 C   0  0  0  0  0  0  0  0  0  0  0  0
   -4.6920   -4.1835    0.8183 C   0  0  0  0  0  0  0  0  0  0  0  0
   -4.7065   -4.2393    2.1977 C   0  0  0  0  0  0  0  0  0  0  0  0
   -3.5074   -4.5357    2.8354 C   0  0  0  0  0  0  0  0  0  0  0  0
   -2.2368   -4.4365    2.1766 C   0  0  0  0  0  0  0  0  0  0  0  0
   -2.1635   -3.9368    0.8464 C   0  0  0  0  0  0  0  0  0  0  0  0
   -1.2660   -2.8716   -0.0085 N   0  0  0  0  0  0  0  0  0  0  0  0
   -2.2482   -2.8865   -0.8711 C   0  0  0  0  0  0  0  0  0  0  0  0
   -3.0124   -1.8051   -0.3948 C   0  0  0  0  0  0  0  0  0  0  0  0
   -4.3651   -4.4486   -3.3208 C   0  0  0  0  0  0  0  0  0  0  0  0
   -4.7606   -5.5946   -3.4996 O   0  0  0  0  0  0  0  0  0  0  0  0
   -3.7350   -3.6794   -4.2874 N   0  0  0  0  0  0  0  0  0  0  0  0
   -3.2845   -2.3689   -3.8197 C   0  0  0  0  0  0  0  0  0  0  0  0
    6.0221    1.9377    7.7790 H   0  0  0  0  0  0  0  0  0  0  0  0
    5.1806    0.5761    8.5474 H   0  0  0  0  0  0  0  0  0  0  0  0
    6.9502    0.5820    8.4454 H   0  0  0  0  0  0  0  0  0  0  0  0
    5.8895   -0.9496    6.7600 H   0  0  0  0  0  0  0  0  0  0  0  0
    6.9018    0.3008    6.0359 H   0  0  0  0  0  0  0  0  0  0  0  0
    4.8934    1.6793    5.5414 H   0  0  0  0  0  0  0  0  0  0  0  0
    3.8478    0.4666    6.2855 H   0  0  0  0  0  0  0  0  0  0  0  0
    5.6958   -0.0260    3.9048 H   0  0  0  0  0  0  0  0  0  0  0  0
    4.6468   -1.2470    4.6390 H   0  0  0  0  0  0  0  0  0  0  0  0
    2.6355    0.1963    4.0278 H   0  0  0  0  0  0  0  0  0  0  0  0
    4.5775    1.7107    2.6032 H   0  0  0  0  0  0  0  0  0  0  0  0
    3.5070   -1.6983    2.5608 H   0  0  0  0  0  0  0  0  0  0  0  0
    4.5790   -0.5596    1.7849 H   0  0  0  0  0  0  0  0  0  0  0  0
    2.4251    1.7403    1.4063 H   0  0  0  0  0  0  0  0  0  0  0  0
    2.2537    1.2089   -0.2441 H   0  0  0  0  0  0  0  0  0  0  0  0
    3.8275    1.2020    0.4293 H   0  0  0  0  0  0  0  0  0  0  0  0
    0.8227   -0.0084    2.1568 H   0  0  0  0  0  0  0  0  0  0  0  0
    0.5007    0.4617   -0.2047 H   0  0  0  0  0  0  0  0  0  0  0  0
    1.2886   -1.0027   -0.8308 H   0  0  0  0  0  0  0  0  0  0  0  0
   -1.1561   -0.7895   -0.9651 H   0  0  0  0  0  0  0  0  0  0  0  0
   -1.7522   -2.4376    3.7739 H   0  0  0  0  0  0  0  0  0  0  0  0
   -0.8863   -0.9406    3.8506 H   0  0  0  0  0  0  0  0  0  0  0  0
   -2.6512   -0.9246    3.6759 H   0  0  0  0  0  0  0  0  0  0  0  0
    0.5946   -2.5828    2.7587 H   0  0  0  0  0  0  0  0  0  0  0  0
    0.7322   -4.9718    0.8670 H   0  0  0  0  0  0  0  0  0  0  0  0
    1.9457   -4.4032   -0.3159 H   0  0  0  0  0  0  0  0  0  0  0  0
    0.3173   -4.2171   -0.7198 H   0  0  0  0  0  0  0  0  0  0  0  0
   -3.1916    1.3434    1.9865 H   0  0  0  0  0  0  0  0  0  0  0  0
   -4.9575    2.8835    1.1638 H   0  0  0  0  0  0  0  0  0  0  0  0
   -6.5594    2.2070   -0.5786 H   0  0  0  0  0  0  0  0  0  0  0  0
   -6.1905    0.1377   -1.8752 H   0  0  0  0  0  0  0  0  0  0  0  0
   -5.6155   -3.9283    0.2918 H   0  0  0  0  0  0  0  0  0  0  0  0
   -5.6461   -4.1261    2.7367 H   0  0  0  0  0  0  0  0  0  0  0  0
   -3.5763   -4.8390    3.8750 H   0  0  0  0  0  0  0  0  0  0  0  0
   -1.3773   -4.8774    2.6715 H   0  0  0  0  0  0  0  0  0  0  0  0
   -3.3565   -4.1734   -5.0849 H   0  0  0  0  0  0  0  0  0  0  0  0
   -3.3731   -1.6111   -4.5954 H   0  0  0  0  0  0  0  0  0  0  0  0
   -2.2179   -2.4970   -3.5518 H   0  0  0  0  0  0  0  0  0  0  0  0
  1  2  1  0  0  0  0
  1 43  1  0  0  0  0
  1 44  1  0  0  0  0
  1 45  1  0  0  0  0
  2  3  1  0  0  0  0
  2 46  1  0  0  0  0
  2 47  1  0  0  0  0
  3  4  1  0  0  0  0
  3 48  1  0  0  0  0
  3 49  1  0  0  0  0
  4  5  1  0  0  0  0
  4 50  1  0  0  0  0
  4 51  1  0  0  0  0
  5  6  1  0  0  0  0
  5  7  1  0  0  0  0
  5 52  1  0  0  0  0
  6 53  1  0  0  0  0
  7  8  1  0  0  0  0
  7 54  1  0  0  0  0
  7 55  1  0  0  0  0
  8  9  1  0  0  0  0
  9 56  1  0  0  0  0
  9 57  1  0  0  0  0
  9 58  1  0  0  0  0
 10 11  1  0  0  0  0
 10 16  1  0  0  0  0
 10  8  1  0  0  0  0
 10 59  1  1  0  0  0
 11 12  1  0  0  0  0
 11 60  1  0  0  0  0
 11 61  1  0  0  0  0
 12 13  1  0  0  0  0
 12 36  1  0  0  0  0
 12 62  1  6  0  0  0
 13 14  1  0  0  0  0
 14 15  1  1  0  0  0
 14 16  1  0  0  0  0
 14 19  1  0  0  0  0
 15 63  1  0  0  0  0
 15 64  1  0  0  0  0
 15 65  1  0  0  0  0
 16 17  1  0  0  0  0
 16 66  1  1  0  0  0
 17 18  1  0  0  0  0
 18 67  1  0  0  0  0
 18 68  1  0  0  0  0
 18 69  1  0  0  0  0
 19 20  1  0  0  0  0
 19 38  1  0  0  0  0
 20 21  1  0  0  0  0
 20 25  2  0  0  0  0
 21 22  2  0  0  0  0
 21 70  1  0  0  0  0
 22 23  1  0  0  0  0
 22 71  1  0  0  0  0
 23 24  2  0  0  0  0
 23 72  1  0  0  0  0
 24 25  1  0  0  0  0
 24 73  1  0  0  0  0
 25 26  1  0  0  0  0
 26 27  1  0  0  0  0
 26 38  2  0  0  0  0
 27 28  2  0  0  0  0
 27 42  1  0  0  0  0
 28 29  1  0  0  0  0
 28 39  1  0  0  0  0
 29 30  1  0  0  0  0
 29 37  2  0  0  0  0
 30 31  1  0  0  0  0
 30 35  2  0  0  0  0
 31 32  2  0  0  0  0
 31 74  1  0  0  0  0
 32 33  1  0  0  0  0
 32 75  1  0  0  0  0
 33 34  2  0  0  0  0
 33 76  1  0  0  0  0
 34 35  1  0  0  0  0
 34 77  1  0  0  0  0
 35 36  1  0  0  0  0
 36 37  1  0  0  0  0
 37 38  1  0  0  0  0
 39 40  2  0  0  0  0
 39 41  1  0  0  0  0
 41 42  1  0  0  0  0
 41 78  1  0  0  0  0
 42 79  1  0  0  0  0
 42 80  1  0  0  0  0
M  END
$$$$
