
 OpenBabel01112422373D

 41 44  0  0  0  0  0  0  0  0999 V2000
    1.1269    0.2301    0.3014 O   0  0  0  0  0  0  0  0  0  0  0  0
    2.3459    0.1393    0.1487 C   0  0  0  0  0  0  0  0  0  0  0  0
    3.1346    1.3895    0.0936 C   0  0  0  0  0  0  0  0  0  0  0  0
    2.4278    2.6089    0.1007 C   0  0  0  0  0  0  0  0  0  0  0  0
    3.1293    3.7997    0.0280 C   0  0  0  0  0  0  0  0  0  0  0  0
    2.5021    5.0117    0.0177 O   0  0  0  0  0  0  0  0  0  0  0  0
    4.5120    3.7772   -0.0448 C   0  0  0  0  0  0  0  0  0  0  0  0
    5.2079    4.9504   -0.1131 O   0  0  0  0  0  0  0  0  0  0  0  0
    5.2143    2.5753   -0.0519 C   0  0  0  0  0  0  0  0  0  0  0  0
    4.5371    1.3411    0.0135 C   0  0  0  0  0  0  0  0  0  0  0  0
    5.2197    0.0286   -0.0050 C   0  0  0  0  0  0  0  0  0  0  0  0
    6.6309   -0.0817   -0.0019 C   0  0  0  0  0  0  0  0  0  0  0  0
    7.2494   -1.3267   -0.0260 C   0  0  0  0  0  0  0  0  0  0  0  0
    8.6091   -1.4655   -0.0183 O   0  0  0  0  0  0  0  0  0  0  0  0
    6.4855   -2.4795   -0.0517 C   0  0  0  0  0  0  0  0  0  0  0  0
    7.0944   -3.7023   -0.0698 O   0  0  0  0  0  0  0  0  0  0  0  0
    5.0993   -2.4107   -0.0503 C   0  0  0  0  0  0  0  0  0  0  0  0
    4.4481   -1.1617   -0.0220 C   0  0  0  0  0  0  0  0  0  0  0  0
    3.0171   -1.0766    0.0173 N   0  0  0  0  0  0  0  0  0  0  0  0
    2.1814   -2.2797   -0.0089 C   0  0  0  0  0  0  0  0  0  0  0  0
    2.0330   -3.0008    1.3168 C   0  0  0  0  0  0  0  0  0  0  0  0
    2.4676   -2.4556    2.5360 C   0  0  0  0  0  0  0  0  0  0  0  0
    2.3599   -3.1841    3.7193 C   0  0  0  0  0  0  0  0  0  0  0  0
    1.7981   -4.4594    3.7094 C   0  0  0  0  0  0  0  0  0  0  0  0
    1.3162   -4.9942    2.5167 C   0  0  0  0  0  0  0  0  0  0  0  0
    1.4301   -4.2686    1.3301 C   0  0  0  0  0  0  0  0  0  0  0  0
    1.3427    2.6049    0.1570 H   0  0  0  0  0  0  0  0  0  0  0  0
    1.5404    4.8596    0.0519 H   0  0  0  0  0  0  0  0  0  0  0  0
    4.5218    5.6474   -0.0896 H   0  0  0  0  0  0  0  0  0  0  0  0
    6.2941    2.6406   -0.1220 H   0  0  0  0  0  0  0  0  0  0  0  0
    7.2591    0.7998    0.0251 H   0  0  0  0  0  0  0  0  0  0  0  0
    9.0119   -0.5805    0.0060 H   0  0  0  0  0  0  0  0  0  0  0  0
    8.0520   -3.5038   -0.0501 H   0  0  0  0  0  0  0  0  0  0  0  0
    4.5611   -3.3508   -0.0438 H   0  0  0  0  0  0  0  0  0  0  0  0
    2.5784   -2.9629   -0.7684 H   0  0  0  0  0  0  0  0  0  0  0  0
    1.1752   -2.0157   -0.3584 H   0  0  0  0  0  0  0  0  0  0  0  0
    2.8998   -1.4620    2.5786 H   0  0  0  0  0  0  0  0  0  0  0  0
    2.7219   -2.7581    4.6512 H   0  0  0  0  0  0  0  0  0  0  0  0
    1.7308   -5.0305    4.6305 H   0  0  0  0  0  0  0  0  0  0  0  0
    0.8594   -5.9798    2.5105 H   0  0  0  0  0  0  0  0  0  0  0  0
    1.0467   -4.7036    0.4079 H   0  0  0  0  0  0  0  0  0  0  0  0
  1  2  2  0  0  0  0
  2  3  1  0  0  0  0
  2 19  1  0  0  0  0
  3  4  1  0  0  0  0
  3 10  2  0  0  0  0
  4  5  2  0  0  0  0
  4 27  1  0  0  0  0
  5  6  1  0  0  0  0
  5  7  1  0  0  0  0
  6 28  1  0  0  0  0
  7  8  1  0  0  0  0
  7  9  2  0  0  0  0
  8 29  1  0  0  0  0
  9 10  1  0  0  0  0
  9 30  1  0  0  0  0
 10 11  1  0  0  0  0
 11 12  1  0  0  0  0
 11 18  2  0  0  0  0
 12 13  2  0  0  0  0
 12 31  1  0  0  0  0
 13 14  1  0  0  0  0
 13 15  1  0  0  0  0
 14 32  1  0  0  0  0
 15 16  1  0  0  0  0
 15 17  2  0  0  0  0
 16 33  1  0  0  0  0
 17 18  1  0  0  0  0
 17 34  1  0  0  0  0
 18 19  1  0  0  0  0
 19 20  1  0  0  0  0
 20 21  1  0  0  0  0
 20 35  1  0  0  0  0
 20 36  1  0  0  0  0
 21 22  1  0  0  0  0
 21 26  2  0  0  0  0
 22 23  2  0  0  0  0
 22 37  1  0  0  0  0
 23 24  1  0  0  0  0
 23 38  1  0  0  0  0
 24 25  2  0  0  0  0
 24 39  1  0  0  0  0
 25 26  1  0  0  0  0
 25 40  1  0  0  0  0
 26 41  1  0  0  0  0
M  END
$$$$
