
 OpenBabel01112422523D

 31 33  0  0  0  0  0  0  0  0999 V2000
    1.0233   -1.7804   -1.3576 C   0  0  0  0  0  0  0  0  0  0  0  0
    2.4780   -1.7622   -1.3738 N   0  0  0  0  0  0  0  0  0  0  0  0
    2.9852   -0.3919   -1.2900 C   0  0  0  0  0  0  0  0  0  0  0  0
    4.4944   -0.3467   -1.3420 C   0  0  0  0  0  0  0  0  0  0  0  0
    5.1994   -0.8013   -2.4642 C   0  0  0  0  0  0  0  0  0  0  0  0
    6.5994   -0.7633   -2.4940 C   0  0  0  0  0  0  0  0  0  0  0  0
    7.3414   -0.2702   -1.4078 C   0  0  0  0  0  0  0  0  0  0  0  0
    8.8095   -0.2895   -1.4238 C   0  0  0  0  0  0  0  0  0  0  0  0
    9.4591   -0.2042   -2.6258 N   0  0  0  0  0  0  0  0  0  0  0  0
   10.8094   -0.2351   -2.6316 C   0  0  0  0  0  0  0  0  0  0  0  0
   11.6448   -0.3555   -1.5814 N   0  0  0  0  0  0  0  0  0  0  0  0
   10.9553   -0.4509   -0.4361 C   0  0  0  0  0  0  0  0  0  0  0  0
   11.4779   -0.6022    0.8176 N   0  0  0  0  0  0  0  0  0  0  0  0
   10.4339   -0.6694    1.6950 C   0  0  0  0  0  0  0  0  0  0  0  0
    9.2749   -0.5632    1.0825 N   0  0  0  0  0  0  0  0  0  0  0  0
    9.5824   -0.4268   -0.2593 C   0  0  0  0  0  0  0  0  0  0  0  0
    6.6174    0.2214   -0.3081 C   0  0  0  0  0  0  0  0  0  0  0  0
    5.2204    0.1793   -0.2696 C   0  0  0  0  0  0  0  0  0  0  0  0
    0.6708   -2.8139   -1.4291 H   0  0  0  0  0  0  0  0  0  0  0  0
    0.6045   -1.2230   -2.2018 H   0  0  0  0  0  0  0  0  0  0  0  0
    0.6334   -1.3634   -0.4235 H   0  0  0  0  0  0  0  0  0  0  0  0
    2.8111   -2.1895   -2.2355 H   0  0  0  0  0  0  0  0  0  0  0  0
    2.6415    0.0588   -0.3503 H   0  0  0  0  0  0  0  0  0  0  0  0
    2.5946    0.2264   -2.1074 H   0  0  0  0  0  0  0  0  0  0  0  0
    4.6667   -1.2032   -3.3222 H   0  0  0  0  0  0  0  0  0  0  0  0
    7.1149   -1.1453   -3.3738 H   0  0  0  0  0  0  0  0  0  0  0  0
   11.2811   -0.1522   -3.6068 H   0  0  0  0  0  0  0  0  0  0  0  0
   12.4602   -0.6615    1.0358 H   0  0  0  0  0  0  0  0  0  0  0  0
   10.5726   -0.7971    2.7608 H   0  0  0  0  0  0  0  0  0  0  0  0
    7.1373    0.6413    0.5514 H   0  0  0  0  0  0  0  0  0  0  0  0
    4.7097    0.5531    0.6149 H   0  0  0  0  0  0  0  0  0  0  0  0
  1  2  1  0  0  0  0
  1 19  1  0  0  0  0
  1 20  1  0  0  0  0
  1 21  1  0  0  0  0
  2  3  1  0  0  0  0
  2 22  1  0  0  0  0
  3  4  1  0  0  0  0
  3 23  1  0  0  0  0
  3 24  1  0  0  0  0
  4  5  1  0  0  0  0
  4 18  2  0  0  0  0
  5  6  2  0  0  0  0
  5 25  1  0  0  0  0
  6  7  1  0  0  0  0
  6 26  1  0  0  0  0
  7  8  1  0  0  0  0
  7 17  2  0  0  0  0
  8  9  1  0  0  0  0
  8 16  2  0  0  0  0
  9 10  2  0  0  0  0
 10 11  1  0  0  0  0
 10 27  1  0  0  0  0
 11 12  2  0  0  0  0
 12 13  1  0  0  0  0
 12 16  1  0  0  0  0
 13 14  1  0  0  0  0
 13 28  1  0  0  0  0
 14 15  2  0  0  0  0
 14 29  1  0  0  0  0
 15 16  1  0  0  0  0
 17 18  1  0  0  0  0
 17 30  1  0  0  0  0
 18 31  1  0  0  0  0
M  END
$$$$
