
 OpenBabel01112422523D

 50 52  0  0  0  0  0  0  0  0999 V2000
    3.0642    0.0554    1.3857 O   0  0  0  0  0  0  0  0  0  0  0  0
    2.5188   -0.1593    0.0663 S   0  0  0  0  0  0  0  0  0  0  0  0
    1.0953   -0.3212   -0.1455 O   0  0  0  0  0  0  0  0  0  0  0  0
    3.0315    1.1235   -0.9045 N   0  0  0  0  0  0  0  0  0  0  0  0
    2.5511    1.1378   -2.2902 C   0  0  0  0  0  0  0  0  0  0  0  0
    2.9827    2.4294   -3.0067 C   0  0  0  0  0  0  0  0  0  0  0  0
    2.5406    2.5217   -4.4023 N   0  0  0  0  0  0  0  0  0  0  0  0
    1.0744    2.5290   -4.5234 C   0  0  0  0  0  0  0  0  0  0  0  0
    0.6441    2.5232   -5.9912 C   0  0  0  0  0  0  0  0  0  0  0  0
    1.1209    1.3235   -6.6146 O   0  0  0  0  0  0  0  0  0  0  0  0
    0.7175    1.2745   -7.9804 C   0  0  0  0  0  0  0  0  0  0  0  0
    1.2822    0.0396   -8.6327 C   0  0  0  0  0  0  0  0  0  0  0  0
    0.4313   -0.9251   -9.1915 C   0  0  0  0  0  0  0  0  0  0  0  0
    0.9585   -2.0377   -9.8513 C   0  0  0  0  0  0  0  0  0  0  0  0
    2.3392   -2.1923   -9.9534 C   0  0  0  0  0  0  0  0  0  0  0  0
    2.9866   -3.5516  -10.7865 Cl  0  0  0  0  0  0  0  0  0  0  0  0
    3.1981   -1.2507   -9.3911 C   0  0  0  0  0  0  0  0  0  0  0  0
    2.6706   -0.1388   -8.7305 C   0  0  0  0  0  0  0  0  0  0  0  0
    3.3584   -1.5620   -0.6534 C   0  0  0  0  0  0  0  0  0  0  0  0
    2.5611   -2.5574   -1.2440 C   0  0  0  0  0  0  0  0  0  0  0  0
    3.1543   -3.6813   -1.8075 C   0  0  0  0  0  0  0  0  0  0  0  0
    4.5399   -3.8100   -1.7918 C   0  0  0  0  0  0  0  0  0  0  0  0
    5.3520   -2.8179   -1.2129 C   0  0  0  0  0  0  0  0  0  0  0  0
    6.7443   -2.9429   -1.2083 C   0  0  0  0  0  0  0  0  0  0  0  0
    7.6020   -2.0428   -0.6801 N   0  0  0  0  0  0  0  0  0  0  0  0
    7.0475   -0.9681   -0.0970 C   0  0  0  0  0  0  0  0  0  0  0  0
    5.6796   -0.7458   -0.0351 C   0  0  0  0  0  0  0  0  0  0  0  0
    4.7789   -1.6718   -0.6156 C   0  0  0  0  0  0  0  0  0  0  0  0
    3.9967    1.4010   -0.7431 H   0  0  0  0  0  0  0  0  0  0  0  0
    1.4604    1.0790   -2.2611 H   0  0  0  0  0  0  0  0  0  0  0  0
    2.9445    0.2743   -2.8345 H   0  0  0  0  0  0  0  0  0  0  0  0
    4.0788    2.4873   -3.0002 H   0  0  0  0  0  0  0  0  0  0  0  0
    2.6390    3.3105   -2.4503 H   0  0  0  0  0  0  0  0  0  0  0  0
    2.8904    1.7261   -4.9436 H   0  0  0  0  0  0  0  0  0  0  0  0
    0.6604    3.4088   -4.0201 H   0  0  0  0  0  0  0  0  0  0  0  0
    0.6493    1.6299   -4.0674 H   0  0  0  0  0  0  0  0  0  0  0  0
    1.0419    3.4006   -6.5131 H   0  0  0  0  0  0  0  0  0  0  0  0
   -0.4511    2.5410   -6.0389 H   0  0  0  0  0  0  0  0  0  0  0  0
    1.0858    2.1586   -8.5144 H   0  0  0  0  0  0  0  0  0  0  0  0
   -0.3776    1.2706   -8.0319 H   0  0  0  0  0  0  0  0  0  0  0  0
   -0.6486   -0.8135   -9.1232 H   0  0  0  0  0  0  0  0  0  0  0  0
    0.2881   -2.7733  -10.2874 H   0  0  0  0  0  0  0  0  0  0  0  0
    4.2750   -1.3716   -9.4683 H   0  0  0  0  0  0  0  0  0  0  0  0
    3.3449    0.5961   -8.2946 H   0  0  0  0  0  0  0  0  0  0  0  0
    1.4758   -2.4697   -1.2641 H   0  0  0  0  0  0  0  0  0  0  0  0
    2.5395   -4.4593   -2.2550 H   0  0  0  0  0  0  0  0  0  0  0  0
    4.9886   -4.6994   -2.2335 H   0  0  0  0  0  0  0  0  0  0  0  0
    7.2317   -3.8094   -1.6506 H   0  0  0  0  0  0  0  0  0  0  0  0
    7.7465   -0.2603    0.3407 H   0  0  0  0  0  0  0  0  0  0  0  0
    5.3454    0.1431    0.4878 H   0  0  0  0  0  0  0  0  0  0  0  0
  1  2  2  0  0  0  0
  2  3  2  0  0  0  0
  2  4  1  0  0  0  0
  2 19  1  0  0  0  0
  4  5  1  0  0  0  0
  4 29  1  0  0  0  0
  5  6  1  0  0  0  0
  5 30  1  0  0  0  0
  5 31  1  0  0  0  0
  6  7  1  0  0  0  0
  6 32  1  0  0  0  0
  6 33  1  0  0  0  0
  7  8  1  0  0  0  0
  7 34  1  0  0  0  0
  8  9  1  0  0  0  0
  8 35  1  0  0  0  0
  8 36  1  0  0  0  0
  9 10  1  0  0  0  0
  9 37  1  0  0  0  0
  9 38  1  0  0  0  0
 10 11  1  0  0  0  0
 11 12  1  0  0  0  0
 11 39  1  0  0  0  0
 11 40  1  0  0  0  0
 12 13  1  0  0  0  0
 12 18  2  0  0  0  0
 13 14  2  0  0  0  0
 13 41  1  0  0  0  0
 14 15  1  0  0  0  0
 14 42  1  0  0  0  0
 15 16  1  0  0  0  0
 15 17  2  0  0  0  0
 17 18  1  0  0  0  0
 17 43  1  0  0  0  0
 18 44  1  0  0  0  0
 19 20  1  0  0  0  0
 19 28  2  0  0  0  0
 20 21  2  0  0  0  0
 20 45  1  0  0  0  0
 21 22  1  0  0  0  0
 21 46  1  0  0  0  0
 22 23  2  0  0  0  0
 22 47  1  0  0  0  0
 23 24  1  0  0  0  0
 23 28  1  0  0  0  0
 24 25  2  0  0  0  0
 24 48  1  0  0  0  0
 25 26  1  0  0  0  0
 26 27  2  0  0  0  0
 26 49  1  0  0  0  0
 27 28  1  0  0  0  0
 27 50  1  0  0  0  0
M  END
$$$$
