
 OpenBabel01112422293D

 60 63  0  0  1  0  0  0  0  0999 V2000
   -0.0082   -3.9577    4.6199 O   0  0  0  0  0  0  0  0  0  0  0  0
    0.9220   -3.4661    3.9858 C   0  0  0  0  0  0  0  0  0  0  0  0
    0.7468   -2.3644    3.1687 N   0  0  0  0  0  0  0  0  0  0  0  0
   -0.5810   -1.7802    3.0552 C   0  0  3  0  0  0  0  0  0  0  0  0
   -1.5935   -2.6664    2.3239 C   0  0  0  0  0  0  0  0  0  0  0  0
   -2.7443   -1.7859    2.0629 N   0  0  0  0  0  0  0  0  0  0  0  0
   -2.1885   -0.4245    1.9110 C   0  0  0  0  0  0  0  0  0  0  0  0
   -0.6865   -0.4734    2.2679 C   0  0  2  0  0  0  0  0  0  0  0  0
    0.0559   -0.5408    1.0365 O   0  0  0  0  0  0  0  0  0  0  0  0
    0.2257    0.6710    0.4500 C   0  0  0  0  0  0  0  0  0  0  0  0
    0.4744    1.7105    1.0342 O   0  0  0  0  0  0  0  0  0  0  0  0
   -0.0875    0.5927   -1.0014 C   0  0  0  0  0  0  0  0  0  0  0  0
   -0.0262    1.7647   -1.7638 C   0  0  0  0  0  0  0  0  0  0  0  0
   -0.3981    1.7331   -3.1098 C   0  0  0  0  0  0  0  0  0  0  0  0
   -0.3783    2.9006   -3.8234 O   0  0  0  0  0  0  0  0  0  0  0  0
   -0.8152    0.5338   -3.7186 C   0  0  0  0  0  0  0  0  0  0  0  0
   -1.1486    0.5186   -5.1626 C   0  0  0  0  0  0  0  0  0  0  0  0
   -0.4003    1.1113   -5.9479 O   0  0  0  0  0  0  0  0  0  0  0  0
   -2.1981   -0.3555   -5.7702 C   0  0  0  0  0  0  0  0  0  0  0  0
   -1.8740   -0.9388   -7.0164 C   0  0  0  0  0  0  0  0  0  0  0  0
   -0.6886   -0.7027   -7.6687 O   0  0  0  0  0  0  0  0  0  0  0  0
   -2.7346   -1.8271   -7.6571 C   0  0  0  0  0  0  0  0  0  0  0  0
   -3.9503   -2.1513   -7.0721 C   0  0  0  0  0  0  0  0  0  0  0  0
   -4.3024   -1.5830   -5.8464 C   0  0  0  0  0  0  0  0  0  0  0  0
   -3.4310   -0.6922   -5.1838 C   0  0  0  0  0  0  0  0  0  0  0  0
   -3.9025   -0.0944   -3.9117 C   0  0  0  0  0  0  0  0  0  0  0  0
   -3.7195    1.0717   -3.6188 O   0  0  0  0  0  0  0  0  0  0  0  0
   -4.5530   -0.9613   -3.1060 O   0  0  0  0  0  0  0  0  0  0  0  0
   -0.8583   -0.6325   -2.9406 C   0  0  0  0  0  0  0  0  0  0  0  0
   -1.2144   -1.8667   -3.4177 O   0  0  0  0  0  0  0  0  0  0  0  0
   -0.5301   -0.5970   -1.5889 C   0  0  0  0  0  0  0  0  0  0  0  0
    2.2764   -4.0777    4.0893 C   0  0  0  0  0  0  0  0  0  0  0  0
    3.2827   -3.8741    3.1377 C   0  0  0  0  0  0  0  0  0  0  0  0
    4.4921   -4.5789    3.2365 C   0  0  0  0  0  0  0  0  0  0  0  0
    4.6834   -5.4817    4.2817 C   0  0  0  0  0  0  0  0  0  0  0  0
    5.8218   -6.2249    4.3794 O   0  0  0  0  0  0  0  0  0  0  0  0
    3.7076   -5.6661    5.2486 C   0  0  0  0  0  0  0  0  0  0  0  0
    2.5008   -4.9703    5.1492 C   0  0  0  0  0  0  0  0  0  0  0  0
    1.5377   -1.8503    2.8057 H   0  0  0  0  0  0  0  0  0  0  0  0
   -0.9466   -1.6000    4.0760 H   0  0  0  0  0  0  0  0  0  0  0  0
   -1.8987   -3.5383    2.9104 H   0  0  0  0  0  0  0  0  0  0  0  0
   -1.1892   -3.0354    1.3731 H   0  0  0  0  0  0  0  0  0  0  0  0
   -3.3459   -1.7988    2.8894 H   0  0  0  0  0  0  0  0  0  0  0  0
   -2.7207    0.2556    2.5830 H   0  0  0  0  0  0  0  0  0  0  0  0
   -2.3676   -0.0920    0.8836 H   0  0  0  0  0  0  0  0  0  0  0  0
   -0.3648    0.3769    2.8792 H   0  0  0  0  0  0  0  0  0  0  0  0
    0.2843    2.6966   -1.2964 H   0  0  0  0  0  0  0  0  0  0  0  0
   -0.1761    3.6528   -3.2426 H   0  0  0  0  0  0  0  0  0  0  0  0
   -0.2791    0.1048   -7.2755 H   0  0  0  0  0  0  0  0  0  0  0  0
   -2.4518   -2.2546   -8.6166 H   0  0  0  0  0  0  0  0  0  0  0  0
   -4.6321   -2.8318   -7.5784 H   0  0  0  0  0  0  0  0  0  0  0  0
   -5.2797   -1.8240   -5.4319 H   0  0  0  0  0  0  0  0  0  0  0  0
   -4.4943   -1.9071   -3.3462 H   0  0  0  0  0  0  0  0  0  0  0  0
   -0.8492   -1.9792   -4.3129 H   0  0  0  0  0  0  0  0  0  0  0  0
   -0.6364   -1.5068   -1.0022 H   0  0  0  0  0  0  0  0  0  0  0  0
    3.1381   -3.2100    2.2933 H   0  0  0  0  0  0  0  0  0  0  0  0
    5.2579   -4.4271    2.4816 H   0  0  0  0  0  0  0  0  0  0  0  0
    6.3496   -6.0999    3.5741 H   0  0  0  0  0  0  0  0  0  0  0  0
    3.8648   -6.3727    6.0586 H   0  0  0  0  0  0  0  0  0  0  0  0
    1.7275   -5.1427    5.8951 H   0  0  0  0  0  0  0  0  0  0  0  0
  1  2  2  0  0  0  0
  2  3  1  0  0  0  0
  2 32  1  0  0  0  0
  3  4  1  0  0  0  0
  3 39  1  0  0  0  0
  4  5  1  0  0  0  0
  4  8  1  0  0  0  0
  4 40  1  0  0  0  0
  5  6  1  0  0  0  0
  5 41  1  0  0  0  0
  5 42  1  0  0  0  0
  6  7  1  0  0  0  0
  6 43  1  0  0  0  0
  7  8  1  0  0  0  0
  7 44  1  0  0  0  0
  7 45  1  0  0  0  0
  8  9  1  0  0  0  0
  8 46  1  1  0  0  0
  9 10  1  0  0  0  0
 10 11  2  0  0  0  0
 10 12  1  0  0  0  0
 12 13  1  0  0  0  0
 12 31  2  0  0  0  0
 13 14  2  0  0  0  0
 13 47  1  0  0  0  0
 14 15  1  0  0  0  0
 14 16  1  0  0  0  0
 15 48  1  0  0  0  0
 16 17  1  0  0  0  0
 16 29  2  0  0  0  0
 17 18  2  0  0  0  0
 17 19  1  0  0  0  0
 19 20  1  0  0  0  0
 19 25  2  0  0  0  0
 20 21  1  0  0  0  0
 20 22  2  0  0  0  0
 21 49  1  0  0  0  0
 22 23  1  0  0  0  0
 22 50  1  0  0  0  0
 23 24  2  0  0  0  0
 23 51  1  0  0  0  0
 24 25  1  0  0  0  0
 24 52  1  0  0  0  0
 25 26  1  0  0  0  0
 26 27  2  0  0  0  0
 26 28  1  0  0  0  0
 28 53  1  0  0  0  0
 29 30  1  0  0  0  0
 29 31  1  0  0  0  0
 30 54  1  0  0  0  0
 31 55  1  0  0  0  0
 32 33  1  0  0  0  0
 32 38  2  0  0  0  0
 33 34  2  0  0  0  0
 33 56  1  0  0  0  0
 34 35  1  0  0  0  0
 34 57  1  0  0  0  0
 35 36  1  0  0  0  0
 35 37  2  0  0  0  0
 36 58  1  0  0  0  0
 37 38  1  0  0  0  0
 37 59  1  0  0  0  0
 38 60  1  0  0  0  0
M  END
$$$$
