
 OpenBabel01112422133D

 52 56  0  0  0  0  0  0  0  0999 V2000
    3.4351    0.6298   -0.8604 C   0  0  0  0  0  0  0  0  0  0  0  0
    3.1388   -0.4065   -1.8491 N   0  0  0  0  0  0  0  0  0  0  0  0
    4.1778   -0.5613   -2.8740 C   0  0  0  0  0  0  0  0  0  0  0  0
    5.5217   -1.1935   -2.4481 C   0  0  0  0  0  0  0  0  0  0  0  0
    5.4916   -2.7050   -2.0857 C   0  0  0  0  0  0  0  0  0  0  0  0
    6.7707   -3.2269   -1.6028 N   0  0  0  0  0  0  0  0  0  0  0  0
    7.1363   -3.1309   -0.2481 C   0  0  0  0  0  0  0  0  0  0  0  0
    8.3965   -2.5720   -0.4928 C   0  0  0  0  0  0  0  0  0  0  0  0
    8.5046   -1.1537   -0.3695 C   0  0  0  0  0  0  0  0  0  0  0  0
    8.9216   -0.1333   -1.1378 C   0  0  0  0  0  0  0  0  0  0  0  0
    9.6871    0.0160   -2.3425 C   0  0  0  0  0  0  0  0  0  0  0  0
   10.6527    1.0114   -2.3800 C   0  0  0  0  0  0  0  0  0  0  0  0
   11.2306    1.0356   -3.6108 N   0  0  0  0  0  0  0  0  0  0  0  0
   10.7069    0.0429   -4.3932 C   0  0  0  0  0  0  0  0  0  0  0  0
   11.0533   -0.3025   -5.7069 C   0  0  0  0  0  0  0  0  0  0  0  0
   10.3405   -1.3240   -6.3280 C   0  0  0  0  0  0  0  0  0  0  0  0
    9.2941   -1.9457   -5.6587 C   0  0  0  0  0  0  0  0  0  0  0  0
    8.9602   -1.5816   -4.3418 C   0  0  0  0  0  0  0  0  0  0  0  0
    9.6952   -0.5920   -3.6515 C   0  0  0  0  0  0  0  0  0  0  0  0
    8.3902    1.1149   -0.4754 C   0  0  0  0  0  0  0  0  0  0  0  0
    8.4444    2.2549   -0.8913 O   0  0  0  0  0  0  0  0  0  0  0  0
    7.7953    0.7679    0.6758 N   0  0  0  0  0  0  0  0  0  0  0  0
    7.8764   -0.5433    0.8636 C   0  0  0  0  0  0  0  0  0  0  0  0
    7.5283   -1.1194    1.8665 O   0  0  0  0  0  0  0  0  0  0  0  0
    8.9288   -3.5489   -1.3725 C   0  0  0  0  0  0  0  0  0  0  0  0
   10.1565   -4.2282   -1.5060 C   0  0  0  0  0  0  0  0  0  0  0  0
   10.2720   -5.2530   -2.4533 C   0  0  0  0  0  0  0  0  0  0  0  0
    9.1624   -5.6408   -3.2118 C   0  0  0  0  0  0  0  0  0  0  0  0
    7.9056   -5.0311   -3.0580 C   0  0  0  0  0  0  0  0  0  0  0  0
    7.8047   -3.9925   -2.1225 C   0  0  0  0  0  0  0  0  0  0  0  0
    2.5882    0.7165   -0.1686 H   0  0  0  0  0  0  0  0  0  0  0  0
    3.5727    1.6148   -1.3207 H   0  0  0  0  0  0  0  0  0  0  0  0
    4.3145    0.3806   -0.2620 H   0  0  0  0  0  0  0  0  0  0  0  0
    2.2784   -0.1147   -2.3229 H   0  0  0  0  0  0  0  0  0  0  0  0
    4.3709    0.4207   -3.3282 H   0  0  0  0  0  0  0  0  0  0  0  0
    3.7522   -1.1788   -3.6732 H   0  0  0  0  0  0  0  0  0  0  0  0
    5.9404   -0.6025   -1.6268 H   0  0  0  0  0  0  0  0  0  0  0  0
    6.2086   -1.0540   -3.2902 H   0  0  0  0  0  0  0  0  0  0  0  0
    5.1797   -3.3158   -2.9335 H   0  0  0  0  0  0  0  0  0  0  0  0
    4.7846   -2.8506   -1.2605 H   0  0  0  0  0  0  0  0  0  0  0  0
    6.9345   -4.0605    0.2888 H   0  0  0  0  0  0  0  0  0  0  0  0
   10.9426    1.7466   -1.6387 H   0  0  0  0  0  0  0  0  0  0  0  0
   11.9292    1.6999   -3.9143 H   0  0  0  0  0  0  0  0  0  0  0  0
   11.8578    0.2069   -6.2289 H   0  0  0  0  0  0  0  0  0  0  0  0
   10.5998   -1.6220   -7.3406 H   0  0  0  0  0  0  0  0  0  0  0  0
    8.7309   -2.7296   -6.1621 H   0  0  0  0  0  0  0  0  0  0  0  0
    8.1274   -2.0798   -3.8720 H   0  0  0  0  0  0  0  0  0  0  0  0
    7.3897    1.4254    1.3354 H   0  0  0  0  0  0  0  0  0  0  0  0
   10.9615   -4.0610   -0.7937 H   0  0  0  0  0  0  0  0  0  0  0  0
   11.2145   -5.7873   -2.5534 H   0  0  0  0  0  0  0  0  0  0  0  0
    9.2739   -6.4862   -3.8940 H   0  0  0  0  0  0  0  0  0  0  0  0
    7.0360   -5.4365   -3.5583 H   0  0  0  0  0  0  0  0  0  0  0  0
  1  2  1  0  0  0  0
  1 31  1  0  0  0  0
  1 32  1  0  0  0  0
  1 33  1  0  0  0  0
  2  3  1  0  0  0  0
  2 34  1  0  0  0  0
  3  4  1  0  0  0  0
  3 35  1  0  0  0  0
  3 36  1  0  0  0  0
  4  5  1  0  0  0  0
  4 37  1  0  0  0  0
  4 38  1  0  0  0  0
  5  6  1  0  0  0  0
  5 39  1  0  0  0  0
  5 40  1  0  0  0  0
  6  7  1  0  0  0  0
  6 30  1  0  0  0  0
  7  8  2  0  0  0  0
  7 41  1  0  0  0  0
  8  9  1  0  0  0  0
  8 25  1  0  0  0  0
  9 10  2  0  0  0  0
  9 23  1  0  0  0  0
 10 11  1  0  0  0  0
 10 20  1  0  0  0  0
 11 12  2  0  0  0  0
 11 19  1  0  0  0  0
 12 13  1  0  0  0  0
 12 42  1  0  0  0  0
 13 14  1  0  0  0  0
 13 43  1  0  0  0  0
 14 15  1  0  0  0  0
 14 19  2  0  0  0  0
 15 16  2  0  0  0  0
 15 44  1  0  0  0  0
 16 17  1  0  0  0  0
 16 45  1  0  0  0  0
 17 18  2  0  0  0  0
 17 46  1  0  0  0  0
 18 19  1  0  0  0  0
 18 47  1  0  0  0  0
 20 21  2  0  0  0  0
 20 22  1  0  0  0  0
 22 23  1  0  0  0  0
 22 48  1  0  0  0  0
 23 24  2  0  0  0  0
 25 26  1  0  0  0  0
 25 30  2  0  0  0  0
 26 27  2  0  0  0  0
 26 49  1  0  0  0  0
 27 28  1  0  0  0  0
 27 50  1  0  0  0  0
 28 29  2  0  0  0  0
 28 51  1  0  0  0  0
 29 30  1  0  0  0  0
 29 52  1  0  0  0  0
M  END
$$$$
