
 OpenBabel01112422413D

 38 41  0  0  0  0  0  0  0  0999 V2000
    0.8863    0.0537   -0.0392 O   0  0  0  0  0  0  0  0  0  0  0  0
    2.2534    0.0090    0.0004 C   0  0  0  0  0  0  0  0  0  0  0  0
    2.9116   -1.2226    0.0152 C   0  0  0  0  0  0  0  0  0  0  0  0
    4.3226   -1.2524    0.0805 C   0  0  0  0  0  0  0  0  0  0  0  0
    5.2806   -2.3129    0.1164 C   0  0  0  0  0  0  0  0  0  0  0  0
    5.1657   -3.7218    0.0568 C   0  0  0  0  0  0  0  0  0  0  0  0
    6.3235   -4.4924    0.1260 C   0  0  0  0  0  0  0  0  0  0  0  0
    6.2812   -5.8586    0.0447 O   0  0  0  0  0  0  0  0  0  0  0  0
    7.5681   -3.8954    0.2771 C   0  0  0  0  0  0  0  0  0  0  0  0
    8.6882   -4.6773    0.3480 O   0  0  0  0  0  0  0  0  0  0  0  0
    7.7139   -2.5138    0.3447 C   0  0  0  0  0  0  0  0  0  0  0  0
    6.5482   -1.7340    0.2358 C   0  0  0  0  0  0  0  0  0  0  0  0
    6.3714   -0.3623    0.1894 N   0  0  0  0  0  0  0  0  0  0  0  0
    7.4571    0.6104    0.0651 C   0  0  0  0  0  0  0  0  0  0  0  0
    7.8709    1.2887    1.3437 C   0  0  0  0  0  0  0  0  0  0  0  0
    7.0634    1.4200    2.4776 C   0  0  0  0  0  0  0  0  0  0  0  0
    7.4939    2.1905    3.5558 C   0  0  0  0  0  0  0  0  0  0  0  0
    8.7294    2.8067    3.4734 C   0  0  0  0  0  0  0  0  0  0  0  0
    9.5494    2.6919    2.4095 N   0  0  0  0  0  0  0  0  0  0  0  0
    9.1040    1.9405    1.3775 C   0  0  0  0  0  0  0  0  0  0  0  0
    5.0237   -0.0459    0.1173 C   0  0  0  0  0  0  0  0  0  0  0  0
    4.3682    1.2004    0.0789 C   0  0  0  0  0  0  0  0  0  0  0  0
    2.9717    1.2001    0.0291 C   0  0  0  0  0  0  0  0  0  0  0  0
    2.2909    2.3875    0.0157 O   0  0  0  0  0  0  0  0  0  0  0  0
    0.5380   -0.8490    0.0152 H   0  0  0  0  0  0  0  0  0  0  0  0
    2.3572   -2.1539   -0.0151 H   0  0  0  0  0  0  0  0  0  0  0  0
    4.1884   -4.1768   -0.0549 H   0  0  0  0  0  0  0  0  0  0  0  0
    5.3550   -6.1246   -0.0881 H   0  0  0  0  0  0  0  0  0  0  0  0
    8.3525   -5.5920    0.2612 H   0  0  0  0  0  0  0  0  0  0  0  0
    8.6976   -2.0740    0.4678 H   0  0  0  0  0  0  0  0  0  0  0  0
    7.1280    1.3685   -0.6558 H   0  0  0  0  0  0  0  0  0  0  0  0
    8.3099    0.0928   -0.3888 H   0  0  0  0  0  0  0  0  0  0  0  0
    6.0884    0.9439    2.5412 H   0  0  0  0  0  0  0  0  0  0  0  0
    6.8710    2.3161    4.4346 H   0  0  0  0  0  0  0  0  0  0  0  0
    9.0999    3.4313    4.2811 H   0  0  0  0  0  0  0  0  0  0  0  0
    9.7926    1.8915    0.5366 H   0  0  0  0  0  0  0  0  0  0  0  0
    4.9284    2.1268    0.1060 H   0  0  0  0  0  0  0  0  0  0  0  0
    2.9258    3.1186    0.0498 H   0  0  0  0  0  0  0  0  0  0  0  0
  1  2  1  0  0  0  0
  1 25  1  0  0  0  0
  2  3  1  0  0  0  0
  2 23  2  0  0  0  0
  3  4  2  0  0  0  0
  3 26  1  0  0  0  0
  4  5  1  0  0  0  0
  4 21  1  0  0  0  0
  5  6  1  0  0  0  0
  5 12  2  0  0  0  0
  6  7  2  0  0  0  0
  6 27  1  0  0  0  0
  7  8  1  0  0  0  0
  7  9  1  0  0  0  0
  8 28  1  0  0  0  0
  9 10  1  0  0  0  0
  9 11  2  0  0  0  0
 10 29  1  0  0  0  0
 11 12  1  0  0  0  0
 11 30  1  0  0  0  0
 12 13  1  0  0  0  0
 13 14  1  0  0  0  0
 13 21  1  0  0  0  0
 14 15  1  0  0  0  0
 14 31  1  0  0  0  0
 14 32  1  0  0  0  0
 15 16  1  0  0  0  0
 15 20  2  0  0  0  0
 16 17  2  0  0  0  0
 16 33  1  0  0  0  0
 17 18  1  0  0  0  0
 17 34  1  0  0  0  0
 18 19  2  0  0  0  0
 18 35  1  0  0  0  0
 19 20  1  0  0  0  0
 20 36  1  0  0  0  0
 21 22  2  0  0  0  0
 22 23  1  0  0  0  0
 22 37  1  0  0  0  0
 23 24  1  0  0  0  0
 24 38  1  0  0  0  0
M  END
$$$$
