
 OpenBabel01112422553D

 48 51  0  0  1  0  0  0  0  0999 V2000
    2.9303   -1.3720   -0.2828 N   0  0  0  0  0  0  0  0  0  0  0  0
    2.4126   -0.0110   -0.0411 C   0  0  2  0  0  0  0  0  0  0  0  0
    0.8663   -0.0335    0.0033 C   0  0  0  0  0  0  0  0  0  0  0  0
    0.3527   -0.3755   -1.2892 O   0  0  0  0  0  0  0  0  0  0  0  0
   -1.0039   -0.4417   -1.4161 C   0  0  0  0  0  0  0  0  0  0  0  0
   -1.4821   -0.8463   -2.6562 C   0  0  0  0  0  0  0  0  0  0  0  0
   -2.7923   -0.9669   -2.9690 N   0  0  0  0  0  0  0  0  0  0  0  0
   -3.6709   -0.6457   -1.9908 C   0  0  0  0  0  0  0  0  0  0  0  0
   -3.3200   -0.2186   -0.7090 C   0  0  0  0  0  0  0  0  0  0  0  0
   -4.3318    0.2248    0.2609 C   0  0  0  0  0  0  0  0  0  0  0  0
   -5.5623   -0.4170    0.4194 C   0  0  0  0  0  0  0  0  0  0  0  0
   -6.5259    0.2538    1.1891 C   0  0  0  0  0  0  0  0  0  0  0  0
   -7.8455    0.0206    1.6403 C   0  0  0  0  0  0  0  0  0  0  0  0
   -8.7189   -1.4230    1.4938 Cl  0  0  0  0  0  0  0  0  0  0  0  0
   -8.3727    1.0745    2.2707 N   0  0  0  0  0  0  0  0  0  0  0  0
   -7.3633    1.9610    2.2881 N   0  0  0  0  0  0  0  0  0  0  0  0
   -6.2051    1.4895    1.7349 C   0  0  0  0  0  0  0  0  0  0  0  0
   -4.9315    2.0193    1.6637 C   0  0  0  0  0  0  0  0  0  0  0  0
   -4.0079    1.3695    0.9211 N   0  0  0  0  0  0  0  0  0  0  0  0
   -1.9441   -0.1257   -0.4374 C   0  0  0  0  0  0  0  0  0  0  0  0
    2.9017    1.0027   -1.1054 C   0  0  0  0  0  0  0  0  0  0  0  0
    4.4024    1.1134   -1.2355 C   0  0  0  0  0  0  0  0  0  0  0  0
    5.1950    1.5004   -0.1439 C   0  0  0  0  0  0  0  0  0  0  0  0
    6.5797    1.5891   -0.2817 C   0  0  0  0  0  0  0  0  0  0  0  0
    7.1904    1.3058   -1.5033 C   0  0  0  0  0  0  0  0  0  0  0  0
    6.4183    0.9324   -2.6137 C   0  0  0  0  0  0  0  0  0  0  0  0
    7.0543    0.6369   -3.9492 C   0  0  0  0  0  0  0  0  0  0  0  0
    8.4063    0.7732   -3.9551 F   0  0  0  0  0  0  0  0  0  0  0  0
    6.8035   -0.6342   -4.3718 F   0  0  0  0  0  0  0  0  0  0  0  0
    6.5882    1.4518   -4.9402 F   0  0  0  0  0  0  0  0  0  0  0  0
    5.0233    0.8411   -2.4615 C   0  0  0  0  0  0  0  0  0  0  0  0
    3.9491   -1.3375   -0.3420 H   0  0  0  0  0  0  0  0  0  0  0  0
    2.6092   -1.6854   -1.2006 H   0  0  0  0  0  0  0  0  0  0  0  0
    2.7664    0.2966    0.9484 H   0  0  0  0  0  0  0  0  0  0  0  0
    0.5315   -0.7682    0.7471 H   0  0  0  0  0  0  0  0  0  0  0  0
    0.5124    0.9642    0.2918 H   0  0  0  0  0  0  0  0  0  0  0  0
   -0.7952   -1.0862   -3.4632 H   0  0  0  0  0  0  0  0  0  0  0  0
   -4.7120   -0.7101   -2.3001 H   0  0  0  0  0  0  0  0  0  0  0  0
   -5.7892   -1.3596   -0.0650 H   0  0  0  0  0  0  0  0  0  0  0  0
   -7.5311    2.8747    2.6971 H   0  0  0  0  0  0  0  0  0  0  0  0
   -4.6222    2.9350    2.1507 H   0  0  0  0  0  0  0  0  0  0  0  0
   -1.6406    0.2233    0.5447 H   0  0  0  0  0  0  0  0  0  0  0  0
    2.5139    2.0006   -0.8593 H   0  0  0  0  0  0  0  0  0  0  0  0
    2.4752    0.7474   -2.0847 H   0  0  0  0  0  0  0  0  0  0  0  0
    4.7353    1.7301    0.8132 H   0  0  0  0  0  0  0  0  0  0  0  0
    7.1897    1.8851    0.5719 H   0  0  0  0  0  0  0  0  0  0  0  0
    8.2723    1.3852   -1.5916 H   0  0  0  0  0  0  0  0  0  0  0  0
    4.4175    0.5479   -3.3197 H   0  0  0  0  0  0  0  0  0  0  0  0
  1 32  1  0  0  0  0
  1 33  1  0  0  0  0
  2 21  1  0  0  0  0
  2  3  1  0  0  0  0
  2  1  1  0  0  0  0
  2 34  1  1  0  0  0
  3  4  1  0  0  0  0
  3 35  1  0  0  0  0
  3 36  1  0  0  0  0
  4  5  1  0  0  0  0
  5  6  1  0  0  0  0
  5 20  2  0  0  0  0
  6  7  2  0  0  0  0
  6 37  1  0  0  0  0
  7  8  1  0  0  0  0
  8  9  2  0  0  0  0
  8 38  1  0  0  0  0
  9 10  1  0  0  0  0
  9 20  1  0  0  0  0
 10 11  1  0  0  0  0
 10 19  2  0  0  0  0
 11 12  2  0  0  0  0
 11 39  1  0  0  0  0
 12 13  1  0  0  0  0
 12 17  1  0  0  0  0
 13 14  1  0  0  0  0
 13 15  2  0  0  0  0
 15 16  1  0  0  0  0
 16 17  1  0  0  0  0
 16 40  1  0  0  0  0
 17 18  2  0  0  0  0
 18 19  1  0  0  0  0
 18 41  1  0  0  0  0
 20 42  1  0  0  0  0
 21 22  1  0  0  0  0
 21 43  1  0  0  0  0
 21 44  1  0  0  0  0
 22 23  1  0  0  0  0
 22 31  2  0  0  0  0
 23 24  2  0  0  0  0
 23 45  1  0  0  0  0
 24 25  1  0  0  0  0
 24 46  1  0  0  0  0
 25 26  2  0  0  0  0
 25 47  1  0  0  0  0
 26 27  1  0  0  0  0
 26 31  1  0  0  0  0
 27 28  1  0  0  0  0
 27 29  1  0  0  0  0
 27 30  1  0  0  0  0
 31 48  1  0  0  0  0
M  END
$$$$
