
 OpenBabel01112422523D

 41 44  0  0  1  0  0  0  0  0999 V2000
    3.0902   -2.5444   -1.3938 C   0  0  0  0  0  0  0  0  0  0  0  0
    2.5000   -2.4201   -0.0654 N   0  0  0  0  0  0  0  0  0  0  0  0
    2.8908   -1.1811    0.6450 C   0  0  3  0  0  0  0  0  0  0  0  0
    2.1883   -1.0367    2.0078 C   0  0  0  0  0  0  0  0  0  0  0  0
    1.2611   -1.9785    2.4908 C   0  0  0  0  0  0  0  0  0  0  0  0
    0.6715   -1.8327    3.7516 C   0  0  0  0  0  0  0  0  0  0  0  0
    0.9976   -0.7399    4.5480 C   0  0  0  0  0  0  0  0  0  0  0  0
    0.2997   -0.5808    6.1126 Cl  0  0  0  0  0  0  0  0  0  0  0  0
    1.8855    0.2243    4.0834 C   0  0  0  0  0  0  0  0  0  0  0  0
    2.4634    0.0845    2.8173 C   0  0  0  0  0  0  0  0  0  0  0  0
    4.4111   -1.0667    0.7786 C   0  0  0  0  0  0  0  0  0  0  0  0
    5.0854    0.0212    0.2118 C   0  0  0  0  0  0  0  0  0  0  0  0
    6.4811    0.0953    0.2597 C   0  0  0  0  0  0  0  0  0  0  0  0
    7.2554   -0.9184    0.8506 C   0  0  0  0  0  0  0  0  0  0  0  0
    8.7255   -0.8941    0.8196 C   0  0  0  0  0  0  0  0  0  0  0  0
    9.4173   -1.5317    1.8090 N   0  0  0  0  0  0  0  0  0  0  0  0
   10.7693   -1.5147    1.7663 C   0  0  0  0  0  0  0  0  0  0  0  0
   11.5652   -0.9446    0.8408 N   0  0  0  0  0  0  0  0  0  0  0  0
   10.8352   -0.3500   -0.1128 C   0  0  0  0  0  0  0  0  0  0  0  0
   11.3088    0.3119   -1.2080 N   0  0  0  0  0  0  0  0  0  0  0  0
   10.2317    0.7526   -1.9246 C   0  0  0  0  0  0  0  0  0  0  0  0
    9.0970    0.4187   -1.3510 N   0  0  0  0  0  0  0  0  0  0  0  0
    9.4545   -0.2727   -0.2081 C   0  0  0  0  0  0  0  0  0  0  0  0
    6.5644   -1.9800    1.4575 C   0  0  0  0  0  0  0  0  0  0  0  0
    5.1666   -2.0520    1.4305 C   0  0  0  0  0  0  0  0  0  0  0  0
    2.6780   -3.4334   -1.8822 H   0  0  0  0  0  0  0  0  0  0  0  0
    4.1757   -2.6828   -1.3542 H   0  0  0  0  0  0  0  0  0  0  0  0
    2.8599   -1.6827   -2.0272 H   0  0  0  0  0  0  0  0  0  0  0  0
    2.8028   -3.2131    0.4948 H   0  0  0  0  0  0  0  0  0  0  0  0
    2.5185   -0.3409    0.0405 H   0  0  0  0  0  0  0  0  0  0  0  0
    0.9812   -2.8422    1.8921 H   0  0  0  0  0  0  0  0  0  0  0  0
   -0.0370   -2.5780    4.1027 H   0  0  0  0  0  0  0  0  0  0  0  0
    2.1393    1.0823    4.6999 H   0  0  0  0  0  0  0  0  0  0  0  0
    3.1498    0.8559    2.4727 H   0  0  0  0  0  0  0  0  0  0  0  0
    4.5376    0.8152   -0.2913 H   0  0  0  0  0  0  0  0  0  0  0  0
    6.9606    0.9610   -0.1949 H   0  0  0  0  0  0  0  0  0  0  0  0
   11.2762   -2.0257    2.5795 H   0  0  0  0  0  0  0  0  0  0  0  0
   12.2831    0.4402   -1.4353 H   0  0  0  0  0  0  0  0  0  0  0  0
   10.3332    1.3070   -2.8483 H   0  0  0  0  0  0  0  0  0  0  0  0
    7.1190   -2.7854    1.9374 H   0  0  0  0  0  0  0  0  0  0  0  0
    4.6743   -2.9010    1.8989 H   0  0  0  0  0  0  0  0  0  0  0  0
  1  2  1  0  0  0  0
  1 26  1  0  0  0  0
  1 27  1  0  0  0  0
  1 28  1  0  0  0  0
  2  3  1  0  0  0  0
  2 29  1  0  0  0  0
  3  4  1  0  0  0  0
  3 11  1  0  0  0  0
  3 30  1  0  0  0  0
  4  5  1  0  0  0  0
  4 10  2  0  0  0  0
  5  6  2  0  0  0  0
  5 31  1  0  0  0  0
  6  7  1  0  0  0  0
  6 32  1  0  0  0  0
  7  8  1  0  0  0  0
  7  9  2  0  0  0  0
  9 10  1  0  0  0  0
  9 33  1  0  0  0  0
 10 34  1  0  0  0  0
 11 12  1  0  0  0  0
 11 25  2  0  0  0  0
 12 13  2  0  0  0  0
 12 35  1  0  0  0  0
 13 14  1  0  0  0  0
 13 36  1  0  0  0  0
 14 15  1  0  0  0  0
 14 24  2  0  0  0  0
 15 16  1  0  0  0  0
 15 23  2  0  0  0  0
 16 17  2  0  0  0  0
 17 18  1  0  0  0  0
 17 37  1  0  0  0  0
 18 19  2  0  0  0  0
 19 20  1  0  0  0  0
 19 23  1  0  0  0  0
 20 21  1  0  0  0  0
 20 38  1  0  0  0  0
 21 22  2  0  0  0  0
 21 39  1  0  0  0  0
 22 23  1  0  0  0  0
 24 25  1  0  0  0  0
 24 40  1  0  0  0  0
 25 41  1  0  0  0  0
M  END
$$$$
