
 OpenBabel01112422453D

 26 28  0  0  0  0  0  0  0  0999 V2000
    0.1210   -1.3812   -2.1949 N   0  0  0  0  0  0  0  0  0  0  0  0
    0.3592   -0.7090   -1.0141 C   0  0  0  0  0  0  0  0  0  0  0  0
   -0.0172   -1.3050    0.1184 N   0  0  0  0  0  0  0  0  0  0  0  0
    0.2340   -0.6365    1.2566 C   0  0  0  0  0  0  0  0  0  0  0  0
    0.8269    0.6016    1.2937 C   0  0  0  0  0  0  0  0  0  0  0  0
    1.1600    1.1411    0.0690 C   0  0  0  0  0  0  0  0  0  0  0  0
    1.8425    2.4284   -0.0396 C   0  0  0  0  0  0  0  0  0  0  0  0
    1.7650    3.4346    0.9082 C   0  0  0  0  0  0  0  0  0  0  0  0
    2.5618    4.4732    0.5027 N   0  0  0  0  0  0  0  0  0  0  0  0
    3.1593    4.1764   -0.6985 C   0  0  0  0  0  0  0  0  0  0  0  0
    4.0558    4.9283   -1.4683 C   0  0  0  0  0  0  0  0  0  0  0  0
    4.5067    4.3721   -2.6687 C   0  0  0  0  0  0  0  0  0  0  0  0
    4.0761    3.1149   -3.0815 C   0  0  0  0  0  0  0  0  0  0  0  0
    3.1855    2.3752   -2.2959 C   0  0  0  0  0  0  0  0  0  0  0  0
    2.7128    2.9085   -1.0767 C   0  0  0  0  0  0  0  0  0  0  0  0
    0.9187    0.4982   -1.0928 N   0  0  0  0  0  0  0  0  0  0  0  0
   -0.6262   -2.0472   -2.0608 H   0  0  0  0  0  0  0  0  0  0  0  0
    0.0260   -0.7167   -2.9503 H   0  0  0  0  0  0  0  0  0  0  0  0
   -0.0577   -1.1460    2.1688 H   0  0  0  0  0  0  0  0  0  0  0  0
    1.0332    1.0942    2.2322 H   0  0  0  0  0  0  0  0  0  0  0  0
    1.2155    3.5105    1.8368 H   0  0  0  0  0  0  0  0  0  0  0  0
    2.7008    5.3358    1.0107 H   0  0  0  0  0  0  0  0  0  0  0  0
    4.3962    5.9080   -1.1494 H   0  0  0  0  0  0  0  0  0  0  0  0
    5.2047    4.9295   -3.2887 H   0  0  0  0  0  0  0  0  0  0  0  0
    4.4347    2.6974   -4.0187 H   0  0  0  0  0  0  0  0  0  0  0  0
    2.8609    1.3916   -2.6244 H   0  0  0  0  0  0  0  0  0  0  0  0
  1  2  1  0  0  0  0
  1 17  1  0  0  0  0
  1 18  1  0  0  0  0
  2  3  1  0  0  0  0
  2 16  2  0  0  0  0
  3  4  2  0  0  0  0
  4  5  1  0  0  0  0
  4 19  1  0  0  0  0
  5  6  2  0  0  0  0
  5 20  1  0  0  0  0
  6  7  1  0  0  0  0
  6 16  1  0  0  0  0
  7  8  2  0  0  0  0
  7 15  1  0  0  0  0
  8  9  1  0  0  0  0
  8 21  1  0  0  0  0
  9 10  1  0  0  0  0
  9 22  1  0  0  0  0
 10 11  1  0  0  0  0
 10 15  2  0  0  0  0
 11 12  2  0  0  0  0
 11 23  1  0  0  0  0
 12 13  1  0  0  0  0
 12 24  1  0  0  0  0
 13 14  2  0  0  0  0
 13 25  1  0  0  0  0
 14 15  1  0  0  0  0
 14 26  1  0  0  0  0
M  END
$$$$
