
 OpenBabel01112422383D

 50 53  0  0  0  0  0  0  0  0999 V2000
    3.8156    1.9998   -0.0408 C   0  0  0  0  0  0  0  0  0  0  0  0
    2.9157    0.7904    0.3032 C   0  0  0  0  0  0  0  0  0  0  0  0
    1.4667    1.3195    0.3958 C   0  0  0  0  0  0  0  0  0  0  0  0
    3.0129   -0.2050   -0.8702 C   0  0  0  0  0  0  0  0  0  0  0  0
    3.2911    0.1087    1.6310 C   0  0  0  0  0  0  0  0  0  0  0  0
    4.3415    0.5753    2.4417 C   0  0  0  0  0  0  0  0  0  0  0  0
    4.5823    0.0400    3.7122 C   0  0  0  0  0  0  0  0  0  0  0  0
    3.8176   -1.0238    4.1834 C   0  0  0  0  0  0  0  0  0  0  0  0
    3.9331   -1.5121    5.5781 C   0  0  0  0  0  0  0  0  0  0  0  0
    2.8740   -1.8859    6.1003 O   0  0  0  0  0  0  0  0  0  0  0  0
    5.0856   -1.5543    6.4004 N   0  0  0  0  0  0  0  0  0  0  0  0
    5.0307   -1.6693    7.7991 C   0  0  0  0  0  0  0  0  0  0  0  0
    4.0059   -1.5086    8.7473 C   0  0  0  0  0  0  0  0  0  0  0  0
    4.2054   -2.1579    9.9620 C   0  0  0  0  0  0  0  0  0  0  0  0
    3.3013   -2.0413   10.9806 O   0  0  0  0  0  0  0  0  0  0  0  0
    5.3198   -2.9579   10.1784 C   0  0  0  0  0  0  0  0  0  0  0  0
    5.3350   -3.8291   11.2291 O   0  0  0  0  0  0  0  0  0  0  0  0
    6.4261   -2.8663    9.3492 C   0  0  0  0  0  0  0  0  0  0  0  0
    6.2933   -2.0900    8.1898 C   0  0  0  0  0  0  0  0  0  0  0  0
    7.1574   -1.4964    7.2482 C   0  0  0  0  0  0  0  0  0  0  0  0
    8.4956   -1.0580    7.2619 C   0  0  0  0  0  0  0  0  0  0  0  0
    9.1405   -0.8155    6.0521 C   0  0  0  0  0  0  0  0  0  0  0  0
    8.5129   -1.2008    4.8784 C   0  0  0  0  0  0  0  0  0  0  0  0
    9.1988   -1.2302    3.6942 O   0  0  0  0  0  0  0  0  0  0  0  0
    7.1670   -1.5907    4.8593 C   0  0  0  0  0  0  0  0  0  0  0  0
    6.6328   -2.1159    3.7148 O   0  0  0  0  0  0  0  0  0  0  0  0
    6.4392   -1.5204    6.0486 C   0  0  0  0  0  0  0  0  0  0  0  0
    2.7986   -1.5372    3.3692 C   0  0  0  0  0  0  0  0  0  0  0  0
    2.5407   -0.9810    2.1100 C   0  0  0  0  0  0  0  0  0  0  0  0
    3.5024    2.4740   -0.9775 H   0  0  0  0  0  0  0  0  0  0  0  0
    4.8630    1.6996   -0.1636 H   0  0  0  0  0  0  0  0  0  0  0  0
    3.7713    2.7696    0.7396 H   0  0  0  0  0  0  0  0  0  0  0  0
    1.1673    1.8154   -0.5348 H   0  0  0  0  0  0  0  0  0  0  0  0
    1.3644    2.0481    1.2091 H   0  0  0  0  0  0  0  0  0  0  0  0
    0.7421    0.5188    0.5794 H   0  0  0  0  0  0  0  0  0  0  0  0
    2.7165    0.2725   -1.8122 H   0  0  0  0  0  0  0  0  0  0  0  0
    2.3619   -1.0748   -0.7330 H   0  0  0  0  0  0  0  0  0  0  0  0
    4.0376   -0.5738   -0.9936 H   0  0  0  0  0  0  0  0  0  0  0  0
    4.9823    1.3946    2.1254 H   0  0  0  0  0  0  0  0  0  0  0  0
    5.3660    0.4819    4.3191 H   0  0  0  0  0  0  0  0  0  0  0  0
    3.0897   -0.9770    8.5173 H   0  0  0  0  0  0  0  0  0  0  0  0
    3.0652   -1.0954   11.0148 H   0  0  0  0  0  0  0  0  0  0  0  0
    4.4154   -3.8155   11.5647 H   0  0  0  0  0  0  0  0  0  0  0  0
    7.3278   -3.4329    9.5495 H   0  0  0  0  0  0  0  0  0  0  0  0
    8.9971   -0.8799    8.2086 H   0  0  0  0  0  0  0  0  0  0  0  0
   10.1468   -0.4117    6.0618 H   0  0  0  0  0  0  0  0  0  0  0  0
   10.1199   -0.9722    3.8746 H   0  0  0  0  0  0  0  0  0  0  0  0
    7.4039   -2.2642    3.1305 H   0  0  0  0  0  0  0  0  0  0  0  0
    2.1705   -2.3507    3.7289 H   0  0  0  0  0  0  0  0  0  0  0  0
    1.7180   -1.3921    1.5277 H   0  0  0  0  0  0  0  0  0  0  0  0
  1  2  1  0  0  0  0
  1 30  1  0  0  0  0
  1 31  1  0  0  0  0
  1 32  1  0  0  0  0
  2  3  1  0  0  0  0
  2  4  1  0  0  0  0
  2  5  1  0  0  0  0
  3 33  1  0  0  0  0
  3 34  1  0  0  0  0
  3 35  1  0  0  0  0
  4 36  1  0  0  0  0
  4 37  1  0  0  0  0
  4 38  1  0  0  0  0
  5  6  1  0  0  0  0
  5 29  2  0  0  0  0
  6  7  2  0  0  0  0
  6 39  1  0  0  0  0
  7  8  1  0  0  0  0
  7 40  1  0  0  0  0
  8  9  1  0  0  0  0
  8 28  2  0  0  0  0
  9 10  2  0  0  0  0
  9 11  1  0  0  0  0
 11 12  1  0  0  0  0
 11 27  1  0  0  0  0
 12 13  1  0  0  0  0
 12 19  2  0  0  0  0
 13 14  2  0  0  0  0
 13 41  1  0  0  0  0
 14 15  1  0  0  0  0
 14 16  1  0  0  0  0
 15 42  1  0  0  0  0
 16 17  1  0  0  0  0
 16 18  2  0  0  0  0
 17 43  1  0  0  0  0
 18 19  1  0  0  0  0
 18 44  1  0  0  0  0
 19 20  1  0  0  0  0
 20 21  1  0  0  0  0
 20 27  2  0  0  0  0
 21 22  2  0  0  0  0
 21 45  1  0  0  0  0
 22 23  1  0  0  0  0
 22 46  1  0  0  0  0
 23 24  1  0  0  0  0
 23 25  2  0  0  0  0
 24 47  1  0  0  0  0
 25 26  1  0  0  0  0
 25 27  1  0  0  0  0
 26 48  1  0  0  0  0
 28 29  1  0  0  0  0
 28 49  1  0  0  0  0
 29 50  1  0  0  0  0
M  END
$$$$
