
 OpenBabel01112422383D

 26 28  0  0  0  0  0  0  0  0999 V2000
    0.8733    0.0616   -0.0560 O   0  0  0  0  0  0  0  0  0  0  0  0
    2.2412    0.0199   -0.0550 C   0  0  0  0  0  0  0  0  0  0  0  0
    2.9780    1.2069   -0.0544 C   0  0  0  0  0  0  0  0  0  0  0  0
    4.3784    1.0985   -0.0534 C   0  0  0  0  0  0  0  0  0  0  0  0
    5.3370    2.0821   -0.0519 N   0  0  0  0  0  0  0  0  0  0  0  0
    6.6041    1.5490   -0.0507 C   0  0  0  0  0  0  0  0  0  0  0  0
    7.8657    2.1609   -0.0477 C   0  0  0  0  0  0  0  0  0  0  0  0
    8.0715    3.5235   -0.0469 O   0  0  0  0  0  0  0  0  0  0  0  0
    9.0001    1.3497   -0.0456 C   0  0  0  0  0  0  0  0  0  0  0  0
   10.2430    1.9207   -0.0410 O   0  0  0  0  0  0  0  0  0  0  0  0
    8.9070   -0.0282   -0.0484 C   0  0  0  0  0  0  0  0  0  0  0  0
    7.6463   -0.6378   -0.0519 C   0  0  0  0  0  0  0  0  0  0  0  0
    7.6110   -2.5347   -0.0568 Br  0  0  0  0  0  0  0  0  0  0  0  0
    6.4630    0.1503   -0.0522 C   0  0  0  0  0  0  0  0  0  0  0  0
    5.0489   -0.1257   -0.0531 C   0  0  0  0  0  0  0  0  0  0  0  0
    4.2699   -1.3067   -0.0531 C   0  0  0  0  0  0  0  0  0  0  0  0
    2.8757   -1.2174   -0.0541 C   0  0  0  0  0  0  0  0  0  0  0  0
    2.1209   -2.3591   -0.0540 O   0  0  0  0  0  0  0  0  0  0  0  0
    0.5794    0.9841   -0.0565 H   0  0  0  0  0  0  0  0  0  0  0  0
    2.4932    2.1759   -0.0546 H   0  0  0  0  0  0  0  0  0  0  0  0
    5.1220    3.0689   -0.0504 H   0  0  0  0  0  0  0  0  0  0  0  0
    7.2107    3.9686   -0.0603 H   0  0  0  0  0  0  0  0  0  0  0  0
   10.0756    2.8840   -0.0370 H   0  0  0  0  0  0  0  0  0  0  0  0
    9.8157   -0.6243   -0.0478 H   0  0  0  0  0  0  0  0  0  0  0  0
    4.7499   -2.2768   -0.0517 H   0  0  0  0  0  0  0  0  0  0  0  0
    2.7120   -3.1277   -0.0547 H   0  0  0  0  0  0  0  0  0  0  0  0
  1  2  1  0  0  0  0
  1 19  1  0  0  0  0
  2  3  1  0  0  0  0
  2 17  2  0  0  0  0
  3  4  2  0  0  0  0
  3 20  1  0  0  0  0
  4  5  1  0  0  0  0
  4 15  1  0  0  0  0
  5  6  1  0  0  0  0
  5 21  1  0  0  0  0
  6  7  1  0  0  0  0
  6 14  2  0  0  0  0
  7  8  1  0  0  0  0
  7  9  2  0  0  0  0
  8 22  1  0  0  0  0
  9 10  1  0  0  0  0
  9 11  1  0  0  0  0
 10 23  1  0  0  0  0
 11 12  2  0  0  0  0
 11 24  1  0  0  0  0
 12 13  1  0  0  0  0
 12 14  1  0  0  0  0
 14 15  1  0  0  0  0
 15 16  2  0  0  0  0
 16 17  1  0  0  0  0
 16 25  1  0  0  0  0
 17 18  1  0  0  0  0
 18 26  1  0  0  0  0
M  END
$$$$
