
 OpenBabel01112422393D

 41 44  0  0  0  0  0  0  0  0999 V2000
    1.0712    0.0887    0.0653 O   0  0  0  0  0  0  0  0  0  0  0  0
    2.3007    0.0050    0.0059 C   0  0  0  0  0  0  0  0  0  0  0  0
    3.0676    1.2694   -0.0098 C   0  0  0  0  0  0  0  0  0  0  0  0
    2.3789    2.4966   -0.0164 C   0  0  0  0  0  0  0  0  0  0  0  0
    1.0090    2.6143    0.0184 O   0  0  0  0  0  0  0  0  0  0  0  0
    3.0817    3.6933   -0.0673 C   0  0  0  0  0  0  0  0  0  0  0  0
    2.4109    4.8811   -0.0965 O   0  0  0  0  0  0  0  0  0  0  0  0
    4.4606    3.6956   -0.0992 C   0  0  0  0  0  0  0  0  0  0  0  0
    5.1477    2.4783   -0.0823 C   0  0  0  0  0  0  0  0  0  0  0  0
    4.4723    1.2356   -0.0392 C   0  0  0  0  0  0  0  0  0  0  0  0
    5.1724   -0.0693   -0.0429 C   0  0  0  0  0  0  0  0  0  0  0  0
    6.5867   -0.1615   -0.0296 C   0  0  0  0  0  0  0  0  0  0  0  0
    7.2251   -1.3947   -0.0558 C   0  0  0  0  0  0  0  0  0  0  0  0
    8.5856   -1.5137   -0.0436 O   0  0  0  0  0  0  0  0  0  0  0  0
    6.4788   -2.5565   -0.0948 C   0  0  0  0  0  0  0  0  0  0  0  0
    7.0996   -3.7719   -0.1241 O   0  0  0  0  0  0  0  0  0  0  0  0
    5.0947   -2.5051   -0.1073 C   0  0  0  0  0  0  0  0  0  0  0  0
    4.4175   -1.2712   -0.0688 C   0  0  0  0  0  0  0  0  0  0  0  0
    2.9842   -1.2096   -0.0541 N   0  0  0  0  0  0  0  0  0  0  0  0
    2.1642   -2.4325   -0.0413 C   0  0  0  0  0  0  0  0  0  0  0  0
    1.9906   -3.0104    1.3502 C   0  0  0  0  0  0  0  0  0  0  0  0
    1.2349   -2.3274    2.3142 C   0  0  0  0  0  0  0  0  0  0  0  0
    1.1610   -2.7958    3.6290 C   0  0  0  0  0  0  0  0  0  0  0  0
    1.8324   -3.9623    3.9971 C   0  0  0  0  0  0  0  0  0  0  0  0
    1.7595   -4.4434    5.6536 Cl  0  0  0  0  0  0  0  0  0  0  0  0
    2.5408   -4.6850    3.0338 C   0  0  0  0  0  0  0  0  0  0  0  0
    3.3775   -6.1510    3.4053 Cl  0  0  0  0  0  0  0  0  0  0  0  0
    2.6063   -4.2168    1.7157 C   0  0  0  0  0  0  0  0  0  0  0  0
    0.6388    1.7019    0.0649 H   0  0  0  0  0  0  0  0  0  0  0  0
    1.4644    4.6289   -0.0817 H   0  0  0  0  0  0  0  0  0  0  0  0
    5.0030    4.6373   -0.1409 H   0  0  0  0  0  0  0  0  0  0  0  0
    6.2310    2.5397   -0.1138 H   0  0  0  0  0  0  0  0  0  0  0  0
    7.2027    0.7286   -0.0024 H   0  0  0  0  0  0  0  0  0  0  0  0
    8.9783   -0.6252   -0.0192 H   0  0  0  0  0  0  0  0  0  0  0  0
    8.0557   -3.5669   -0.0879 H   0  0  0  0  0  0  0  0  0  0  0  0
    4.5817   -3.4530   -0.1549 H   0  0  0  0  0  0  0  0  0  0  0  0
    2.5770   -3.1674   -0.7418 H   0  0  0  0  0  0  0  0  0  0  0  0
    1.1661   -2.2131   -0.4429 H   0  0  0  0  0  0  0  0  0  0  0  0
    0.7067   -1.4115    2.0541 H   0  0  0  0  0  0  0  0  0  0  0  0
    0.5890   -2.2328    4.3621 H   0  0  0  0  0  0  0  0  0  0  0  0
    3.1608   -4.7946    0.9796 H   0  0  0  0  0  0  0  0  0  0  0  0
  1  2  2  0  0  0  0
  2  3  1  0  0  0  0
  2 19  1  0  0  0  0
  3  4  1  0  0  0  0
  3 10  2  0  0  0  0
  4  5  1  0  0  0  0
  4  6  2  0  0  0  0
  5 29  1  0  0  0  0
  6  7  1  0  0  0  0
  6  8  1  0  0  0  0
  7 30  1  0  0  0  0
  8  9  2  0  0  0  0
  8 31  1  0  0  0  0
  9 10  1  0  0  0  0
  9 32  1  0  0  0  0
 10 11  1  0  0  0  0
 11 12  1  0  0  0  0
 11 18  2  0  0  0  0
 12 13  2  0  0  0  0
 12 33  1  0  0  0  0
 13 14  1  0  0  0  0
 13 15  1  0  0  0  0
 14 34  1  0  0  0  0
 15 16  1  0  0  0  0
 15 17  2  0  0  0  0
 16 35  1  0  0  0  0
 17 18  1  0  0  0  0
 17 36  1  0  0  0  0
 18 19  1  0  0  0  0
 19 20  1  0  0  0  0
 20 21  1  0  0  0  0
 20 37  1  0  0  0  0
 20 38  1  0  0  0  0
 21 22  1  0  0  0  0
 21 28  2  0  0  0  0
 22 23  2  0  0  0  0
 22 39  1  0  0  0  0
 23 24  1  0  0  0  0
 23 40  1  0  0  0  0
 24 25  1  0  0  0  0
 24 26  2  0  0  0  0
 26 27  1  0  0  0  0
 26 28  1  0  0  0  0
 28 41  1  0  0  0  0
M  END
$$$$
