
 OpenBabel01112422323D

 40 45  0  0  0  0  0  0  0  0999 V2000
    2.0194   -0.4009    0.2393 C   0  0  0  0  0  0  0  0  0  0  0  0
    2.6802    0.8830    0.1089 N   0  0  0  0  0  0  0  0  0  0  0  0
    1.9903    2.0072    0.5307 C   0  0  0  0  0  0  0  0  0  0  0  0
    2.1352    2.9307   -0.4639 C   0  0  0  0  0  0  0  0  0  0  0  0
    3.2977    2.5551   -1.1770 C   0  0  0  0  0  0  0  0  0  0  0  0
    4.0057    3.2713   -2.1530 C   0  0  0  0  0  0  0  0  0  0  0  0
    5.0976    2.7003   -2.7694 C   0  0  0  0  0  0  0  0  0  0  0  0
    5.3958    1.3723   -2.5038 C   0  0  0  0  0  0  0  0  0  0  0  0
    6.3735    0.7850   -3.3089 C   0  0  0  0  0  0  0  0  0  0  0  0
    7.3636    1.2837   -4.1200 N   0  0  0  0  0  0  0  0  0  0  0  0
    8.2657    0.2905   -4.4527 C   0  0  0  0  0  0  0  0  0  0  0  0
    9.5260    0.4155   -5.0387 C   0  0  0  0  0  0  0  0  0  0  0  0
   10.2465   -0.7542   -5.2389 C   0  0  0  0  0  0  0  0  0  0  0  0
   11.5017   -0.7196   -5.7747 O   0  0  0  0  0  0  0  0  0  0  0  0
    9.7349   -1.9991   -4.8967 C   0  0  0  0  0  0  0  0  0  0  0  0
    8.4728   -2.1081   -4.3076 C   0  0  0  0  0  0  0  0  0  0  0  0
    7.7247   -0.9406   -4.0537 C   0  0  0  0  0  0  0  0  0  0  0  0
    6.5578   -0.5652   -3.3845 C   0  0  0  0  0  0  0  0  0  0  0  0
    5.9109   -1.4157   -2.4524 C   0  0  0  0  0  0  0  0  0  0  0  0
    5.3253   -0.7014   -1.3567 C   0  0  0  0  0  0  0  0  0  0  0  0
    4.7680    0.5940   -1.4728 C   0  0  0  0  0  0  0  0  0  0  0  0
    3.6832    1.2405   -0.7954 C   0  0  0  0  0  0  0  0  0  0  0  0
    5.9486   -1.3602   -0.2160 C   0  0  0  0  0  0  0  0  0  0  0  0
    6.3990   -0.9295    0.8418 O   0  0  0  0  0  0  0  0  0  0  0  0
    6.2829   -2.6183   -0.7008 N   0  0  0  0  0  0  0  0  0  0  0  0
    6.2333   -2.7536   -2.0575 C   0  0  0  0  0  0  0  0  0  0  0  0
    6.4373   -3.8082   -2.6633 O   0  0  0  0  0  0  0  0  0  0  0  0
    2.5820   -1.0464    0.9083 H   0  0  0  0  0  0  0  0  0  0  0  0
    1.8879   -0.8216   -0.7596 H   0  0  0  0  0  0  0  0  0  0  0  0
    1.0156   -0.2284    0.6569 H   0  0  0  0  0  0  0  0  0  0  0  0
    1.2939    1.9746    1.3586 H   0  0  0  0  0  0  0  0  0  0  0  0
    1.5414    3.8229   -0.6149 H   0  0  0  0  0  0  0  0  0  0  0  0
    3.6830    4.2692   -2.4358 H   0  0  0  0  0  0  0  0  0  0  0  0
    5.6344    3.2816   -3.5094 H   0  0  0  0  0  0  0  0  0  0  0  0
    7.5429    2.2687   -4.2373 H   0  0  0  0  0  0  0  0  0  0  0  0
    9.9232    1.3889   -5.2913 H   0  0  0  0  0  0  0  0  0  0  0  0
   11.7376    0.2087   -5.9328 H   0  0  0  0  0  0  0  0  0  0  0  0
   10.3243   -2.8954   -5.0686 H   0  0  0  0  0  0  0  0  0  0  0  0
    8.1119   -3.0946   -4.0398 H   0  0  0  0  0  0  0  0  0  0  0  0
    6.9295   -3.2183   -0.2091 H   0  0  0  0  0  0  0  0  0  0  0  0
  1  2  1  0  0  0  0
  1 28  1  0  0  0  0
  1 29  1  0  0  0  0
  1 30  1  0  0  0  0
  2  3  1  0  0  0  0
  2 22  1  0  0  0  0
  3  4  2  0  0  0  0
  3 31  1  0  0  0  0
  4  5  1  0  0  0  0
  4 32  1  0  0  0  0
  5  6  1  0  0  0  0
  5 22  2  0  0  0  0
  6  7  2  0  0  0  0
  6 33  1  0  0  0  0
  7  8  1  0  0  0  0
  7 34  1  0  0  0  0
  8  9  1  0  0  0  0
  8 21  2  0  0  0  0
  9 10  1  0  0  0  0
  9 18  2  0  0  0  0
 10 11  1  0  0  0  0
 10 35  1  0  0  0  0
 11 12  1  0  0  0  0
 11 17  2  0  0  0  0
 12 13  2  0  0  0  0
 12 36  1  0  0  0  0
 13 14  1  0  0  0  0
 13 15  1  0  0  0  0
 14 37  1  0  0  0  0
 15 16  2  0  0  0  0
 15 38  1  0  0  0  0
 16 17  1  0  0  0  0
 16 39  1  0  0  0  0
 17 18  1  0  0  0  0
 18 19  1  0  0  0  0
 19 20  2  0  0  0  0
 19 26  1  0  0  0  0
 20 21  1  0  0  0  0
 20 23  1  0  0  0  0
 21 22  1  0  0  0  0
 23 24  2  0  0  0  0
 23 25  1  0  0  0  0
 25 26  1  0  0  0  0
 25 40  1  0  0  0  0
 26 27  2  0  0  0  0
M  END
$$$$
