
 OpenBabel01112422493D

 30 31  0  0  0  0  0  0  0  0999 V2000
    4.7733   -2.0717   -0.7109 N   0  0  0  0  0  0  0  0  0  0  0  0
    3.7989   -1.6135   -1.7110 C   0  0  0  0  0  0  0  0  0  0  0  0
    4.2583   -0.3369   -2.4361 C   0  0  0  0  0  0  0  0  0  0  0  0
    4.4655    0.7483   -1.4466 N   0  0  0  0  0  0  0  0  0  0  0  0
    4.8797    2.2666   -2.0861 S   0  0  0  0  0  0  0  0  0  0  0  0
    4.2734    2.3770   -3.3911 O   0  0  0  0  0  0  0  0  0  0  0  0
    4.6062    3.2363   -1.0479 O   0  0  0  0  0  0  0  0  0  0  0  0
    6.6655    2.1624   -2.2046 C   0  0  0  0  0  0  0  0  0  0  0  0
    7.3269    2.0895   -0.9610 C   0  0  0  0  0  0  0  0  0  0  0  0
    8.7127    2.0550   -0.8938 C   0  0  0  0  0  0  0  0  0  0  0  0
    9.4537    2.1065   -2.0666 C   0  0  0  0  0  0  0  0  0  0  0  0
    8.8187    2.1964   -3.3171 C   0  0  0  0  0  0  0  0  0  0  0  0
    9.5857    2.2693   -4.4832 C   0  0  0  0  0  0  0  0  0  0  0  0
    9.0854    2.3707   -5.7317 N   0  0  0  0  0  0  0  0  0  0  0  0
    7.7470    2.4073   -5.8295 C   0  0  0  0  0  0  0  0  0  0  0  0
    6.8888    2.3396   -4.7392 C   0  0  0  0  0  0  0  0  0  0  0  0
    7.4037    2.2290   -3.4241 C   0  0  0  0  0  0  0  0  0  0  0  0
    4.4682   -2.9819   -0.3619 H   0  0  0  0  0  0  0  0  0  0  0  0
    4.7235   -1.4564    0.1018 H   0  0  0  0  0  0  0  0  0  0  0  0
    2.8396   -1.4385   -1.2093 H   0  0  0  0  0  0  0  0  0  0  0  0
    3.6440   -2.4074   -2.4494 H   0  0  0  0  0  0  0  0  0  0  0  0
    3.4787   -0.0480   -3.1480 H   0  0  0  0  0  0  0  0  0  0  0  0
    5.1915   -0.5268   -2.9758 H   0  0  0  0  0  0  0  0  0  0  0  0
    5.1375    0.4576   -0.7364 H   0  0  0  0  0  0  0  0  0  0  0  0
    6.7609    2.0884   -0.0297 H   0  0  0  0  0  0  0  0  0  0  0  0
    9.2167    2.0055    0.0693 H   0  0  0  0  0  0  0  0  0  0  0  0
   10.5410    2.0935   -1.9996 H   0  0  0  0  0  0  0  0  0  0  0  0
   10.6728    2.2548   -4.4447 H   0  0  0  0  0  0  0  0  0  0  0  0
    7.3564    2.4997   -6.8395 H   0  0  0  0  0  0  0  0  0  0  0  0
    5.8297    2.3852   -4.9560 H   0  0  0  0  0  0  0  0  0  0  0  0
  1  2  1  0  0  0  0
  1 18  1  0  0  0  0
  1 19  1  0  0  0  0
  2  3  1  0  0  0  0
  2 20  1  0  0  0  0
  2 21  1  0  0  0  0
  3  4  1  0  0  0  0
  3 22  1  0  0  0  0
  3 23  1  0  0  0  0
  4  5  1  0  0  0  0
  4 24  1  0  0  0  0
  5  6  2  0  0  0  0
  5  7  2  0  0  0  0
  5  8  1  0  0  0  0
  8  9  1  0  0  0  0
  8 17  2  0  0  0  0
  9 10  2  0  0  0  0
  9 25  1  0  0  0  0
 10 11  1  0  0  0  0
 10 26  1  0  0  0  0
 11 12  2  0  0  0  0
 11 27  1  0  0  0  0
 12 13  1  0  0  0  0
 12 17  1  0  0  0  0
 13 14  2  0  0  0  0
 13 28  1  0  0  0  0
 14 15  1  0  0  0  0
 15 16  2  0  0  0  0
 15 29  1  0  0  0  0
 16 17  1  0  0  0  0
 16 30  1  0  0  0  0
M  END
$$$$
