
 OpenBabel01112422373D

 39 40  0  0  0  0  0  0  0  0999 V2000
    1.0539    0.3689   -3.3874 C   0  0  0  0  0  0  0  0  0  0  0  0
    2.3840    0.0577   -2.7591 C   0  0  0  0  0  0  0  0  0  0  0  0
    2.4345   -1.0612   -1.7597 C   0  0  0  0  0  0  0  0  0  0  0  0
    3.4756    0.7616   -3.1187 C   0  0  0  0  0  0  0  0  0  0  0  0
    4.8856    0.5672   -2.6395 C   0  0  0  0  0  0  0  0  0  0  0  0
    5.3384    1.8603   -2.1762 N   0  0  0  0  0  0  0  0  0  0  0  0
    6.7265    2.0320   -2.1416 C   0  0  0  0  0  0  0  0  0  0  0  0
    7.5622    0.9596   -2.1776 N   0  0  0  0  0  0  0  0  0  0  0  0
    8.8916    1.1521   -2.1970 C   0  0  0  0  0  0  0  0  0  0  0  0
    9.6700    0.0092   -2.2117 N   0  0  0  0  0  0  0  0  0  0  0  0
    9.5366    2.3236   -2.2520 N   0  0  0  0  0  0  0  0  0  0  0  0
    8.6927    3.3645   -2.2074 C   0  0  0  0  0  0  0  0  0  0  0  0
    7.3103    3.3126   -2.1240 C   0  0  0  0  0  0  0  0  0  0  0  0
    6.7767    4.5857   -2.0908 N   0  0  0  0  0  0  0  0  0  0  0  0
    7.8132    5.3899   -2.1816 C   0  0  0  0  0  0  0  0  0  0  0  0
    8.9956    4.6992   -2.2593 N   0  0  0  0  0  0  0  0  0  0  0  0
   10.3121    5.3074   -2.3860 C   0  0  0  0  0  0  0  0  0  0  0  0
   11.2174    4.9743   -1.2012 C   0  0  0  0  0  0  0  0  0  0  0  0
   10.9857    4.9763   -3.7184 C   0  0  0  0  0  0  0  0  0  0  0  0
    0.2700   -0.3128   -3.0436 H   0  0  0  0  0  0  0  0  0  0  0  0
    1.1113    0.2730   -4.4767 H   0  0  0  0  0  0  0  0  0  0  0  0
    0.7369    1.3880   -3.1383 H   0  0  0  0  0  0  0  0  0  0  0  0
    1.4529   -1.5262   -1.6177 H   0  0  0  0  0  0  0  0  0  0  0  0
    2.7634   -0.6890   -0.7842 H   0  0  0  0  0  0  0  0  0  0  0  0
    3.1199   -1.8454   -2.0961 H   0  0  0  0  0  0  0  0  0  0  0  0
    3.3639    1.5502   -3.8573 H   0  0  0  0  0  0  0  0  0  0  0  0
    5.4703    0.2302   -3.5036 H   0  0  0  0  0  0  0  0  0  0  0  0
    4.9701   -0.1837   -1.8492 H   0  0  0  0  0  0  0  0  0  0  0  0
    4.9408    2.1399   -1.2841 H   0  0  0  0  0  0  0  0  0  0  0  0
    9.1222   -0.7631   -2.5675 H   0  0  0  0  0  0  0  0  0  0  0  0
   10.5487    0.2037   -2.6679 H   0  0  0  0  0  0  0  0  0  0  0  0
    7.7636    6.4714   -2.2027 H   0  0  0  0  0  0  0  0  0  0  0  0
   10.1457    6.3929   -2.3713 H   0  0  0  0  0  0  0  0  0  0  0  0
   11.4338    3.9030   -1.1394 H   0  0  0  0  0  0  0  0  0  0  0  0
   10.7477    5.2748   -0.2582 H   0  0  0  0  0  0  0  0  0  0  0  0
   12.1729    5.5026   -1.2858 H   0  0  0  0  0  0  0  0  0  0  0  0
   11.2174    3.9102   -3.8081 H   0  0  0  0  0  0  0  0  0  0  0  0
   11.9252    5.5309   -3.8206 H   0  0  0  0  0  0  0  0  0  0  0  0
   10.3429    5.2508   -4.5622 H   0  0  0  0  0  0  0  0  0  0  0  0
  1  2  1  0  0  0  0
  1 20  1  0  0  0  0
  1 21  1  0  0  0  0
  1 22  1  0  0  0  0
  2  3  1  0  0  0  0
  2  4  2  0  0  0  0
  3 23  1  0  0  0  0
  3 24  1  0  0  0  0
  3 25  1  0  0  0  0
  4  5  1  0  0  0  0
  4 26  1  0  0  0  0
  5  6  1  0  0  0  0
  5 27  1  0  0  0  0
  5 28  1  0  0  0  0
  6  7  1  0  0  0  0
  6 29  1  0  0  0  0
  7  8  1  0  0  0  0
  7 13  2  0  0  0  0
  8  9  2  0  0  0  0
  9 10  1  0  0  0  0
  9 11  1  0  0  0  0
 10 30  1  0  0  0  0
 10 31  1  0  0  0  0
 11 12  2  0  0  0  0
 12 13  1  0  0  0  0
 12 16  1  0  0  0  0
 13 14  1  0  0  0  0
 14 15  2  0  0  0  0
 15 16  1  0  0  0  0
 15 32  1  0  0  0  0
 16 17  1  0  0  0  0
 17 18  1  0  0  0  0
 17 19  1  0  0  0  0
 17 33  1  0  0  0  0
 18 34  1  0  0  0  0
 18 35  1  0  0  0  0
 18 36  1  0  0  0  0
 19 37  1  0  0  0  0
 19 38  1  0  0  0  0
 19 39  1  0  0  0  0
M  END
$$$$
