
 OpenBabel01112423103D

 54 57  0  0  0  0  0  0  0  0999 V2000
    4.6137   -2.0966    0.7598 C   0  0  0  0  0  0  0  0  0  0  0  0
    3.3403   -2.8873    0.7659 C   0  0  0  0  0  0  0  0  0  0  0  0
    2.1443   -2.3034    0.3593 C   0  0  0  0  0  0  0  0  0  0  0  0
    0.9612   -3.0412    0.3696 C   0  0  0  0  0  0  0  0  0  0  0  0
    0.9366   -4.3810    0.7857 C   0  0  0  0  0  0  0  0  0  0  0  0
   -0.2694   -5.1095    0.7967 N   0  0  0  0  0  0  0  0  0  0  0  0
   -1.5232   -4.6783    0.4117 C   0  0  0  0  0  0  0  0  0  0  0  0
   -1.8823   -3.5946   -0.0275 O   0  0  0  0  0  0  0  0  0  0  0  0
   -2.5843   -5.7786    0.5650 C   0  0  0  0  0  0  0  0  0  0  0  0
   -2.2597   -6.8221    1.1162 O   0  0  0  0  0  0  0  0  0  0  0  0
   -3.7900   -5.4248   -0.0020 N   0  0  0  0  0  0  0  0  0  0  0  0
   -4.9697   -6.1854   -0.0229 C   0  0  0  0  0  0  0  0  0  0  0  0
   -5.1465   -7.3205    0.7668 C   0  0  0  0  0  0  0  0  0  0  0  0
   -6.3564   -8.0035    0.7408 C   0  0  0  0  0  0  0  0  0  0  0  0
   -7.4009   -7.5836   -0.0950 C   0  0  0  0  0  0  0  0  0  0  0  0
   -7.2238   -6.4612   -0.9305 C   0  0  0  0  0  0  0  0  0  0  0  0
   -6.0099   -5.7593   -0.8603 C   0  0  0  0  0  0  0  0  0  0  0  0
   -8.2885   -6.0637   -1.8165 N   0  0  0  0  0  0  0  0  0  0  0  0
   -8.0184   -5.4523   -3.0552 C   0  0  0  0  0  0  0  0  0  0  0  0
   -6.8919   -5.2135   -3.4824 O   0  0  0  0  0  0  0  0  0  0  0  0
   -9.1753   -5.1404   -3.9639 C   0  0  0  0  0  0  0  0  0  0  0  0
   -9.2400   -5.8205   -5.3176 C   0  0  0  0  0  0  0  0  0  0  0  0
   -8.9718   -4.3479   -5.2390 C   0  0  0  0  0  0  0  0  0  0  0  0
   -9.6235   -6.4951   -1.3817 C   0  0  0  0  0  0  0  0  0  0  0  0
   -9.6496   -7.9961   -1.1651 C   0  0  0  0  0  0  0  0  0  0  0  0
   -8.6880   -8.3659   -0.0485 C   0  0  0  0  0  0  0  0  0  0  0  0
    2.1428   -4.9873    1.1930 C   0  0  0  0  0  0  0  0  0  0  0  0
    2.2814   -6.4136    1.6579 C   0  0  0  0  0  0  0  0  0  0  0  0
    3.3309   -4.2237    1.1776 C   0  0  0  0  0  0  0  0  0  0  0  0
    4.4438   -1.0685    0.4215 H   0  0  0  0  0  0  0  0  0  0  0  0
    5.3399   -2.5559    0.0816 H   0  0  0  0  0  0  0  0  0  0  0  0
    5.0353   -2.0502    1.7684 H   0  0  0  0  0  0  0  0  0  0  0  0
    2.1129   -1.2674    0.0292 H   0  0  0  0  0  0  0  0  0  0  0  0
    0.0643   -2.5233    0.0433 H   0  0  0  0  0  0  0  0  0  0  0  0
   -0.2565   -6.0701    1.1238 H   0  0  0  0  0  0  0  0  0  0  0  0
   -3.7879   -4.5315   -0.4921 H   0  0  0  0  0  0  0  0  0  0  0  0
   -4.3735   -7.6763    1.4377 H   0  0  0  0  0  0  0  0  0  0  0  0
   -6.4791   -8.8760    1.3786 H   0  0  0  0  0  0  0  0  0  0  0  0
   -5.8690   -4.8595   -1.4530 H   0  0  0  0  0  0  0  0  0  0  0  0
  -10.1078   -4.8890   -3.4748 H   0  0  0  0  0  0  0  0  0  0  0  0
  -10.2043   -6.1454   -5.6881 H   0  0  0  0  0  0  0  0  0  0  0  0
   -8.4115   -6.4509   -5.6276 H   0  0  0  0  0  0  0  0  0  0  0  0
   -9.7624   -3.6727   -5.5468 H   0  0  0  0  0  0  0  0  0  0  0  0
   -7.9746   -3.9947   -5.4778 H   0  0  0  0  0  0  0  0  0  0  0  0
  -10.4040   -6.2341   -2.0940 H   0  0  0  0  0  0  0  0  0  0  0  0
   -9.8550   -5.9587   -0.4506 H   0  0  0  0  0  0  0  0  0  0  0  0
   -9.3608   -8.5051   -2.0927 H   0  0  0  0  0  0  0  0  0  0  0  0
  -10.6599   -8.3312   -0.9083 H   0  0  0  0  0  0  0  0  0  0  0  0
   -8.4763   -9.4405   -0.1051 H   0  0  0  0  0  0  0  0  0  0  0  0
   -9.1644   -8.1725    0.9209 H   0  0  0  0  0  0  0  0  0  0  0  0
    1.3593   -6.9932    1.6092 H   0  0  0  0  0  0  0  0  0  0  0  0
    2.6267   -6.4330    2.6975 H   0  0  0  0  0  0  0  0  0  0  0  0
    3.0173   -6.9346    1.0348 H   0  0  0  0  0  0  0  0  0  0  0  0
    4.2666   -4.6834    1.4960 H   0  0  0  0  0  0  0  0  0  0  0  0
  1  2  1  0  0  0  0
  1 30  1  0  0  0  0
  1 31  1  0  0  0  0
  1 32  1  0  0  0  0
  2  3  1  0  0  0  0
  2 29  2  0  0  0  0
  3  4  2  0  0  0  0
  3 33  1  0  0  0  0
  4  5  1  0  0  0  0
  4 34  1  0  0  0  0
  5  6  1  0  0  0  0
  5 27  2  0  0  0  0
  6  7  1  0  0  0  0
  6 35  1  0  0  0  0
  7  8  2  0  0  0  0
  7  9  1  0  0  0  0
  9 10  2  0  0  0  0
  9 11  1  0  0  0  0
 11 12  1  0  0  0  0
 11 36  1  0  0  0  0
 12 13  1  0  0  0  0
 12 17  2  0  0  0  0
 13 14  2  0  0  0  0
 13 37  1  0  0  0  0
 14 15  1  0  0  0  0
 14 38  1  0  0  0  0
 15 16  2  0  0  0  0
 15 26  1  0  0  0  0
 16 17  1  0  0  0  0
 16 18  1  0  0  0  0
 17 39  1  0  0  0  0
 18 19  1  0  0  0  0
 18 24  1  0  0  0  0
 19 20  2  0  0  0  0
 19 21  1  0  0  0  0
 21 22  1  0  0  0  0
 21 23  1  0  0  0  0
 21 40  1  0  0  0  0
 22 23  1  0  0  0  0
 22 41  1  0  0  0  0
 22 42  1  0  0  0  0
 23 43  1  0  0  0  0
 23 44  1  0  0  0  0
 24 25  1  0  0  0  0
 24 45  1  0  0  0  0
 24 46  1  0  0  0  0
 25 26  1  0  0  0  0
 25 47  1  0  0  0  0
 25 48  1  0  0  0  0
 26 49  1  0  0  0  0
 26 50  1  0  0  0  0
 27 28  1  0  0  0  0
 27 29  1  0  0  0  0
 28 51  1  0  0  0  0
 28 52  1  0  0  0  0
 28 53  1  0  0  0  0
 29 54  1  0  0  0  0
M  END
$$$$
