
 OpenBabel01112423113D

 51 54  0  0  1  0  0  0  0  0999 V2000
   -7.3982   -7.8023   -0.6111 C   0  0  0  0  0  0  0  0  0  0  0  0
   -7.0366   -6.6054   -1.4378 C   0  0  0  0  0  0  0  0  0  0  0  0
   -6.7269   -6.7214   -2.7967 C   0  0  0  0  0  0  0  0  0  0  0  0
   -6.4239   -5.5830   -3.5553 C   0  0  0  0  0  0  0  0  0  0  0  0
   -6.4238   -4.3128   -2.9656 C   0  0  0  0  0  0  0  0  0  0  0  0
   -6.1317   -3.1233   -3.7646 C   0  0  0  0  0  0  0  0  0  0  0  0
   -6.4118   -2.9427   -5.0478 N   0  0  0  0  0  0  0  0  0  0  0  0
   -6.0496   -1.6555   -5.4034 N   0  0  0  0  0  0  0  0  0  0  0  0
   -5.5433   -1.0922   -4.3360 C   0  0  0  0  0  0  0  0  0  0  0  0
   -4.8476    0.4840   -4.2021 S   0  0  0  0  0  0  0  0  0  0  0  0
   -6.2688    1.5078   -3.6535 C   0  0  2  0  0  0  0  0  0  0  0  0
   -6.7708    1.1192   -2.2671 C   0  0  0  0  0  0  0  0  0  0  0  0
   -7.3934    1.4827   -4.6978 C   0  0  0  0  0  0  0  0  0  0  0  0
   -8.4466    0.8768   -4.4785 O   0  0  0  0  0  0  0  0  0  0  0  0
   -7.1910    2.2085   -5.8686 N   0  0  0  0  0  0  0  0  0  0  0  0
   -8.2211    2.1632   -6.9184 C   0  0  0  0  0  0  0  0  0  0  0  0
   -8.4070    3.5334   -7.5757 C   0  0  0  0  0  0  0  0  0  0  0  0
   -7.0881    3.8936   -8.2129 C   0  0  0  0  0  0  0  0  0  0  0  0
   -6.9761    4.3474   -9.5260 C   0  0  0  0  0  0  0  0  0  0  0  0
   -5.7110    4.5665  -10.0724 C   0  0  0  0  0  0  0  0  0  0  0  0
   -4.5611    4.3520   -9.3099 C   0  0  0  0  0  0  0  0  0  0  0  0
   -4.6699    3.9169   -7.9912 C   0  0  0  0  0  0  0  0  0  0  0  0
   -5.9302    3.6708   -7.4460 C   0  0  0  0  0  0  0  0  0  0  0  0
   -6.0928    3.1700   -6.0367 C   0  0  0  0  0  0  0  0  0  0  0  0
   -5.4953   -1.9883   -3.3050 N   0  0  0  0  0  0  0  0  0  0  0  0
   -4.8336   -1.7902   -2.0288 N   0  0  0  0  0  0  0  0  0  0  0  0
   -6.7453   -4.2083   -1.6048 C   0  0  0  0  0  0  0  0  0  0  0  0
   -7.0363   -5.3408   -0.8457 C   0  0  0  0  0  0  0  0  0  0  0  0
   -7.3503   -8.7254   -1.1962 H   0  0  0  0  0  0  0  0  0  0  0  0
   -8.4195   -7.6942   -0.2319 H   0  0  0  0  0  0  0  0  0  0  0  0
   -6.7103   -7.9000    0.2351 H   0  0  0  0  0  0  0  0  0  0  0  0
   -6.7242   -7.6951   -3.2818 H   0  0  0  0  0  0  0  0  0  0  0  0
   -6.1945   -5.6943   -4.6140 H   0  0  0  0  0  0  0  0  0  0  0  0
   -5.8982    2.5338   -3.5609 H   0  0  0  0  0  0  0  0  0  0  0  0
   -7.3011    0.1626   -2.2587 H   0  0  0  0  0  0  0  0  0  0  0  0
   -7.4838    1.8764   -1.9135 H   0  0  0  0  0  0  0  0  0  0  0  0
   -5.9547    1.0816   -1.5389 H   0  0  0  0  0  0  0  0  0  0  0  0
   -9.1730    1.7991   -6.5205 H   0  0  0  0  0  0  0  0  0  0  0  0
   -7.8814    1.4281   -7.6625 H   0  0  0  0  0  0  0  0  0  0  0  0
   -8.6634    4.2873   -6.8186 H   0  0  0  0  0  0  0  0  0  0  0  0
   -9.2140    3.5026   -8.3128 H   0  0  0  0  0  0  0  0  0  0  0  0
   -7.8633    4.4972  -10.1355 H   0  0  0  0  0  0  0  0  0  0  0  0
   -5.6182    4.8786  -11.1103 H   0  0  0  0  0  0  0  0  0  0  0  0
   -3.5788    4.5111   -9.7468 H   0  0  0  0  0  0  0  0  0  0  0  0
   -3.7700    3.7451   -7.4059 H   0  0  0  0  0  0  0  0  0  0  0  0
   -6.3202    4.0212   -5.3825 H   0  0  0  0  0  0  0  0  0  0  0  0
   -5.1520    2.7377   -5.6968 H   0  0  0  0  0  0  0  0  0  0  0  0
   -4.1460   -1.0409   -2.1154 H   0  0  0  0  0  0  0  0  0  0  0  0
   -4.2947   -2.6207   -1.7846 H   0  0  0  0  0  0  0  0  0  0  0  0
   -6.7980   -3.2376   -1.1169 H   0  0  0  0  0  0  0  0  0  0  0  0
   -7.2828   -5.2233    0.2075 H   0  0  0  0  0  0  0  0  0  0  0  0
  1  2  1  0  0  0  0
  1 29  1  0  0  0  0
  1 30  1  0  0  0  0
  1 31  1  0  0  0  0
  2  3  1  0  0  0  0
  2 28  2  0  0  0  0
  3  4  2  0  0  0  0
  3 32  1  0  0  0  0
  4  5  1  0  0  0  0
  4 33  1  0  0  0  0
  5  6  1  0  0  0  0
  5 27  2  0  0  0  0
  6  7  2  0  0  0  0
  6 25  1  0  0  0  0
  7  8  1  0  0  0  0
  8  9  2  0  0  0  0
  9 10  1  0  0  0  0
  9 25  1  0  0  0  0
 11 13  1  0  0  0  0
 11 12  1  0  0  0  0
 11 10  1  0  0  0  0
 11 34  1  1  0  0  0
 12 35  1  0  0  0  0
 12 36  1  0  0  0  0
 12 37  1  0  0  0  0
 13 14  2  0  0  0  0
 13 15  1  0  0  0  0
 15 16  1  0  0  0  0
 15 24  1  0  0  0  0
 16 17  1  0  0  0  0
 16 38  1  0  0  0  0
 16 39  1  0  0  0  0
 17 18  1  0  0  0  0
 17 40  1  0  0  0  0
 17 41  1  0  0  0  0
 18 19  1  0  0  0  0
 18 23  2  0  0  0  0
 19 20  2  0  0  0  0
 19 42  1  0  0  0  0
 20 21  1  0  0  0  0
 20 43  1  0  0  0  0
 21 22  2  0  0  0  0
 21 44  1  0  0  0  0
 22 23  1  0  0  0  0
 22 45  1  0  0  0  0
 23 24  1  0  0  0  0
 24 46  1  0  0  0  0
 24 47  1  0  0  0  0
 25 26  1  0  0  0  0
 26 48  1  0  0  0  0
 26 49  1  0  0  0  0
 27 28  1  0  0  0  0
 27 50  1  0  0  0  0
 28 51  1  0  0  0  0
M  END
$$$$
