
 OpenBabel01112423153D

 45 48  0  0  0  0  0  0  0  0999 V2000
    5.0149   -1.3591   -1.2270 O   0  0  0  0  0  0  0  0  0  0  0  0
    3.8089   -1.1151   -1.1754 C   0  0  0  0  0  0  0  0  0  0  0  0
    3.0441   -1.1935    0.1510 C   0  0  0  0  0  0  0  0  0  0  0  0
    2.0839   -2.3247    0.2396 N   0  0  0  0  0  0  0  0  0  0  0  0
    2.6065   -3.6487    0.2193 C   0  0  0  0  0  0  0  0  0  0  0  0
    3.9791   -3.9559    0.2184 C   0  0  0  0  0  0  0  0  0  0  0  0
    4.4490   -5.2766    0.1579 C   0  0  0  0  0  0  0  0  0  0  0  0
    3.5580   -6.3401    0.1364 C   0  0  0  0  0  0  0  0  0  0  0  0
    2.1950   -6.0797    0.1786 C   0  0  0  0  0  0  0  0  0  0  0  0
    1.7319   -4.7526    0.2147 C   0  0  0  0  0  0  0  0  0  0  0  0
    0.2776   -4.5230    0.2583 C   0  0  0  0  0  0  0  0  0  0  0  0
   -0.5093   -5.4663    0.2182 O   0  0  0  0  0  0  0  0  0  0  0  0
   -0.2175   -3.1390    0.3883 C   0  0  0  0  0  0  0  0  0  0  0  0
   -1.6055   -2.9431    0.5047 C   0  0  0  0  0  0  0  0  0  0  0  0
   -2.1128   -1.6673    0.7000 C   0  0  0  0  0  0  0  0  0  0  0  0
   -1.2316   -0.5999    0.8064 C   0  0  0  0  0  0  0  0  0  0  0  0
    0.1521   -0.7999    0.6759 C   0  0  0  0  0  0  0  0  0  0  0  0
    0.7020   -2.0700    0.4264 C   0  0  0  0  0  0  0  0  0  0  0  0
    3.0630   -0.6693   -2.2604 N   0  0  0  0  0  0  0  0  0  0  0  0
    3.7083   -0.5045   -3.4520 N   0  0  0  0  0  0  0  0  0  0  0  0
    2.9910   -0.2003   -4.4839 C   0  0  0  0  0  0  0  0  0  0  0  0
    3.6158   -0.0488   -5.8183 C   0  0  0  0  0  0  0  0  0  0  0  0
    5.0039   -0.1754   -5.9586 C   0  0  0  0  0  0  0  0  0  0  0  0
    5.5861   -0.0600   -7.2201 C   0  0  0  0  0  0  0  0  0  0  0  0
    7.2884   -0.2106   -7.4007 Cl  0  0  0  0  0  0  0  0  0  0  0  0
    4.7919    0.1786   -8.3455 C   0  0  0  0  0  0  0  0  0  0  0  0
    3.4082    0.3062   -8.2080 C   0  0  0  0  0  0  0  0  0  0  0  0
    2.8227    0.1960   -6.9464 C   0  0  0  0  0  0  0  0  0  0  0  0
    1.4678    0.3221   -6.8138 O   0  0  0  0  0  0  0  0  0  0  0  0
    2.5877   -0.2091    0.2684 H   0  0  0  0  0  0  0  0  0  0  0  0
    3.7694   -1.2560    0.9720 H   0  0  0  0  0  0  0  0  0  0  0  0
    4.7438   -3.1878    0.2671 H   0  0  0  0  0  0  0  0  0  0  0  0
    5.5204   -5.4634    0.1268 H   0  0  0  0  0  0  0  0  0  0  0  0
    3.9215   -7.3630    0.0933 H   0  0  0  0  0  0  0  0  0  0  0  0
    1.4893   -6.9078    0.1816 H   0  0  0  0  0  0  0  0  0  0  0  0
   -2.2845   -3.7921    0.4542 H   0  0  0  0  0  0  0  0  0  0  0  0
   -3.1842   -1.5128    0.7932 H   0  0  0  0  0  0  0  0  0  0  0  0
   -1.6175    0.3986    1.0026 H   0  0  0  0  0  0  0  0  0  0  0  0
    0.7632    0.0831    0.8161 H   0  0  0  0  0  0  0  0  0  0  0  0
    2.0574   -0.5513   -2.2030 H   0  0  0  0  0  0  0  0  0  0  0  0
    1.8977   -0.0616   -4.4089 H   0  0  0  0  0  0  0  0  0  0  0  0
    5.6295   -0.3692   -5.0903 H   0  0  0  0  0  0  0  0  0  0  0  0
    5.2500    0.2619   -9.3288 H   0  0  0  0  0  0  0  0  0  0  0  0
    2.8079    0.4855   -9.0968 H   0  0  0  0  0  0  0  0  0  0  0  0
    1.0728    0.4728   -7.6898 H   0  0  0  0  0  0  0  0  0  0  0  0
  1  2  2  0  0  0  0
  2  3  1  0  0  0  0
  2 19  1  0  0  0  0
  3  4  1  0  0  0  0
  3 30  1  0  0  0  0
  3 31  1  0  0  0  0
  4  5  1  0  0  0  0
  4 18  1  0  0  0  0
  5  6  1  0  0  0  0
  5 10  2  0  0  0  0
  6  7  2  0  0  0  0
  6 32  1  0  0  0  0
  7  8  1  0  0  0  0
  7 33  1  0  0  0  0
  8  9  2  0  0  0  0
  8 34  1  0  0  0  0
  9 10  1  0  0  0  0
  9 35  1  0  0  0  0
 10 11  1  0  0  0  0
 11 12  2  0  0  0  0
 11 13  1  0  0  0  0
 13 14  1  0  0  0  0
 13 18  2  0  0  0  0
 14 15  2  0  0  0  0
 14 36  1  0  0  0  0
 15 16  1  0  0  0  0
 15 37  1  0  0  0  0
 16 17  2  0  0  0  0
 16 38  1  0  0  0  0
 17 18  1  0  0  0  0
 17 39  1  0  0  0  0
 19 20  1  0  0  0  0
 19 40  1  0  0  0  0
 20 21  2  0  0  0  0
 21 22  1  0  0  0  0
 21 41  1  0  0  0  0
 22 23  1  0  0  0  0
 22 28  2  0  0  0  0
 23 24  2  0  0  0  0
 23 42  1  0  0  0  0
 24 25  1  0  0  0  0
 24 26  1  0  0  0  0
 26 27  2  0  0  0  0
 26 43  1  0  0  0  0
 27 28  1  0  0  0  0
 27 44  1  0  0  0  0
 28 29  1  0  0  0  0
 29 45  1  0  0  0  0
M  END
$$$$
