
 OpenBabel01112423043D

 43 46  0  0  0  0  0  0  0  0999 V2000
    1.0872    0.0892    0.0801 N   0  0  0  0  0  0  0  0  0  0  0  0
    2.4755    0.0969   -0.2032 C   0  0  0  0  0  0  0  0  0  0  0  0
    3.2299    1.2719    0.0145 C   0  0  0  0  0  0  0  0  0  0  0  0
    2.5234    2.4481    0.3257 N   0  0  0  0  0  0  0  0  0  0  0  0
    3.3132    3.5362    0.8934 C   0  0  0  0  0  0  0  0  0  0  0  0
    3.7747    3.2065    2.3145 C   0  0  0  0  0  0  0  0  0  0  0  0
    3.9148    4.5461    3.0239 C   0  0  0  0  0  0  0  0  0  0  0  0
    3.1288    5.5566    2.1963 C   0  0  0  0  0  0  0  0  0  0  0  0
    2.4215    4.7476    1.1145 C   0  0  0  0  0  0  0  0  0  0  0  0
    4.5675    1.3136   -0.1267 N   0  0  0  0  0  0  0  0  0  0  0  0
    5.1749    0.1480   -0.3793 C   0  0  0  0  0  0  0  0  0  0  0  0
    4.5427   -1.0082   -0.5174 N   0  3  0  0  0  0  0  0  0  0  0  0
    3.2066   -1.0717   -0.4562 C   0  0  0  0  0  0  0  0  0  0  0  0
    2.6069   -2.3126   -0.6889 N   0  0  0  0  0  0  0  0  0  0  0  0
    3.0118   -3.2911   -1.6219 C   0  0  0  0  0  0  0  0  0  0  0  0
    3.7809   -2.9518   -2.7608 C   0  0  0  0  0  0  0  0  0  0  0  0
    4.2271   -3.9325   -3.6531 C   0  0  0  0  0  0  0  0  0  0  0  0
    3.8938   -5.2337   -3.3810 C   0  0  0  0  0  0  0  0  0  0  0  0
    3.1279   -5.5750   -2.2911 C   0  0  0  0  0  0  0  0  0  0  0  0
    2.6645   -4.6285   -1.4022 C   0  0  0  0  0  0  0  0  0  0  0  0
    2.9177   -6.9155   -2.2109 O   0  0  0  0  0  0  0  0  0  0  0  0
    3.7486   -7.3865   -3.2957 C   0  0  0  0  0  0  0  0  0  0  0  0
    4.2610   -6.3148   -4.1162 O   0  0  0  0  0  0  0  0  0  0  0  0
    0.6582    0.9916   -0.1419 H   0  0  0  0  0  0  0  0  0  0  0  0
    0.5197   -0.6618   -0.2903 H   0  0  0  0  0  0  0  0  0  0  0  0
    1.7676    2.2049    0.9666 H   0  0  0  0  0  0  0  0  0  0  0  0
    4.1584    3.8206    0.2502 H   0  0  0  0  0  0  0  0  0  0  0  0
    4.7130    2.6428    2.3255 H   0  0  0  0  0  0  0  0  0  0  0  0
    3.0274    2.5942    2.8367 H   0  0  0  0  0  0  0  0  0  0  0  0
    4.9672    4.8441    3.0834 H   0  0  0  0  0  0  0  0  0  0  0  0
    3.5346    4.4799    4.0483 H   0  0  0  0  0  0  0  0  0  0  0  0
    3.8139    6.2817    1.7457 H   0  0  0  0  0  0  0  0  0  0  0  0
    2.4138    6.1181    2.8116 H   0  0  0  0  0  0  0  0  0  0  0  0
    2.2830    5.3390    0.1984 H   0  0  0  0  0  0  0  0  0  0  0  0
    1.4190    4.4609    1.4625 H   0  0  0  0  0  0  0  0  0  0  0  0
    6.2570    0.1467   -0.4767 H   0  0  0  0  0  0  0  0  0  0  0  0
    5.0591   -1.8708   -0.6617 H   0  0  0  0  0  0  0  0  0  0  0  0
    1.6015   -2.3300   -0.5336 H   0  0  0  0  0  0  0  0  0  0  0  0
    4.0099   -1.9179   -3.0025 H   0  0  0  0  0  0  0  0  0  0  0  0
    4.8059   -3.6776   -4.5331 H   0  0  0  0  0  0  0  0  0  0  0  0
    2.0710   -4.9399   -0.5435 H   0  0  0  0  0  0  0  0  0  0  0  0
    3.1715   -8.0733   -3.9228 H   0  0  0  0  0  0  0  0  0  0  0  0
    4.6013   -7.9265   -2.8654 H   0  0  0  0  0  0  0  0  0  0  0  0
  1  2  1  0  0  0  0
  1 24  1  0  0  0  0
  1 25  1  0  0  0  0
  2  3  1  0  0  0  0
  2 13  2  0  0  0  0
  3  4  1  0  0  0  0
  3 10  2  0  0  0  0
  4  5  1  0  0  0  0
  4 26  1  0  0  0  0
  5  6  1  0  0  0  0
  5  9  1  0  0  0  0
  5 27  1  0  0  0  0
  6  7  1  0  0  0  0
  6 28  1  0  0  0  0
  6 29  1  0  0  0  0
  7  8  1  0  0  0  0
  7 30  1  0  0  0  0
  7 31  1  0  0  0  0
  8  9  1  0  0  0  0
  8 32  1  0  0  0  0
  8 33  1  0  0  0  0
  9 34  1  0  0  0  0
  9 35  1  0  0  0  0
 10 11  1  0  0  0  0
 11 12  2  0  0  0  0
 11 36  1  0  0  0  0
 12 13  1  0  0  0  0
 12 37  1  0  0  0  0
 13 14  1  0  0  0  0
 14 15  1  0  0  0  0
 14 38  1  0  0  0  0
 15 16  1  0  0  0  0
 15 20  2  0  0  0  0
 16 17  2  0  0  0  0
 16 39  1  0  0  0  0
 17 18  1  0  0  0  0
 17 40  1  0  0  0  0
 18 19  2  0  0  0  0
 18 23  1  0  0  0  0
 19 20  1  0  0  0  0
 19 21  1  0  0  0  0
 20 41  1  0  0  0  0
 21 22  1  0  0  0  0
 22 23  1  0  0  0  0
 22 42  1  0  0  0  0
 22 43  1  0  0  0  0
M  CHG  1  12   1
M  END
$$$$
