
 OpenBabel01112423043D

 53 57  0  0  1  0  0  0  0  0999 V2000
   -1.6570    6.4235   -3.3384 C   0  0  0  0  0  0  0  0  0  0  0  0
   -2.9260    5.7366   -3.7547 C   0  0  0  0  0  0  0  0  0  0  0  0
   -3.6121    6.1630   -4.8854 C   0  0  0  0  0  0  0  0  0  0  0  0
   -4.7657    5.4886   -5.2637 C   0  0  0  0  0  0  0  0  0  0  0  0
   -5.2079    4.4125   -4.5052 C   0  0  0  0  0  0  0  0  0  0  0  0
   -4.5063    4.0687   -3.3565 C   0  0  0  0  0  0  0  0  0  0  0  0
   -5.0068    3.0351   -2.5297 N   0  0  0  0  0  0  0  0  0  0  0  0
   -4.5903    2.8955   -1.1902 C   0  0  0  0  0  0  0  0  0  0  0  0
   -3.4355    3.4466   -0.8109 N   0  3  0  0  0  0  0  0  0  0  0  0
   -3.0625    3.4254    0.4591 C   0  0  0  0  0  0  0  0  0  0  0  0
   -3.7902    2.8665    1.4373 N   0  0  0  0  0  0  0  0  0  0  0  0
   -4.9378    2.2512    1.0975 C   0  0  0  0  0  0  0  0  0  0  0  0
   -5.7155    1.6055    2.0716 N   0  0  0  0  0  0  0  0  0  0  0  0
   -5.1638    1.3728    3.4274 C   0  0  3  0  0  0  0  0  0  0  0  0
   -5.0380    2.6807    4.2482 C   0  0  0  0  0  0  0  0  0  0  0  0
   -4.4409    2.3856    5.6375 C   0  0  3  0  0  0  0  0  0  0  0  0
   -5.3866    1.4551    6.4121 C   0  0  0  0  0  0  0  0  0  0  0  0
   -5.5889    0.1474    5.6291 C   0  0  3  0  0  0  0  0  0  0  0  0
   -4.2262   -0.5529    5.5047 C   0  0  0  0  0  0  0  0  0  0  0  0
   -3.2483    0.3439    4.7378 C   0  0  3  0  0  0  0  0  0  0  0  0
   -3.0775    1.6939    5.4588 C   0  0  0  0  0  0  0  0  0  0  0  0
   -3.8217    0.5972    3.3428 C   0  0  0  0  0  0  0  0  0  0  0  0
   -6.1483    0.4602    4.2208 C   0  0  0  0  0  0  0  0  0  0  0  0
   -5.3579    2.1828   -0.2490 C   0  0  0  0  0  0  0  0  0  0  0  0
   -6.6111    1.6182   -0.6077 N   0  0  0  0  0  0  0  0  0  0  0  0
   -3.3530    4.6956   -2.9852 N   0  0  0  0  0  0  0  0  0  0  0  0
   -1.4985    7.3536   -3.8937 H   0  0  0  0  0  0  0  0  0  0  0  0
   -0.8017    5.7643   -3.5146 H   0  0  0  0  0  0  0  0  0  0  0  0
   -1.7011    6.6717   -2.2732 H   0  0  0  0  0  0  0  0  0  0  0  0
   -3.2625    7.0088   -5.4717 H   0  0  0  0  0  0  0  0  0  0  0  0
   -5.3255    5.8080   -6.1393 H   0  0  0  0  0  0  0  0  0  0  0  0
   -6.1116    3.8850   -4.7954 H   0  0  0  0  0  0  0  0  0  0  0  0
   -6.0277    3.0469   -2.5461 H   0  0  0  0  0  0  0  0  0  0  0  0
   -2.9018    3.9410   -1.5326 H   0  0  0  0  0  0  0  0  0  0  0  0
   -2.1318    3.9091    0.7228 H   0  0  0  0  0  0  0  0  0  0  0  0
   -6.6515    2.0117    2.0947 H   0  0  0  0  0  0  0  0  0  0  0  0
   -6.0259    3.1491    4.3632 H   0  0  0  0  0  0  0  0  0  0  0  0
   -4.4142    3.4242    3.7432 H   0  0  0  0  0  0  0  0  0  0  0  0
   -4.3094    3.3239    6.1916 H   0  0  0  0  0  0  0  0  0  0  0  0
   -6.3515    1.9484    6.5792 H   0  0  0  0  0  0  0  0  0  0  0  0
   -4.9655    1.2383    7.4029 H   0  0  0  0  0  0  0  0  0  0  0  0
   -6.2860   -0.5025    6.1692 H   0  0  0  0  0  0  0  0  0  0  0  0
   -4.3426   -1.5119    4.9855 H   0  0  0  0  0  0  0  0  0  0  0  0
   -3.8211   -0.7759    6.4980 H   0  0  0  0  0  0  0  0  0  0  0  0
   -2.2760   -0.1531    4.6478 H   0  0  0  0  0  0  0  0  0  0  0  0
   -2.4045    2.3429    4.8824 H   0  0  0  0  0  0  0  0  0  0  0  0
   -2.6068    1.5357    6.4357 H   0  0  0  0  0  0  0  0  0  0  0  0
   -3.9768   -0.3557    2.8177 H   0  0  0  0  0  0  0  0  0  0  0  0
   -3.0609    1.1294    2.7682 H   0  0  0  0  0  0  0  0  0  0  0  0
   -7.1290    0.9473    4.3158 H   0  0  0  0  0  0  0  0  0  0  0  0
   -6.3240   -0.4754    3.6752 H   0  0  0  0  0  0  0  0  0  0  0  0
   -6.9176    0.9653    0.1228 H   0  0  0  0  0  0  0  0  0  0  0  0
   -6.5924    1.1354   -1.5033 H   0  0  0  0  0  0  0  0  0  0  0  0
  1  2  1  0  0  0  0
  1 27  1  0  0  0  0
  1 28  1  0  0  0  0
  1 29  1  0  0  0  0
  2  3  1  0  0  0  0
  2 26  2  0  0  0  0
  3  4  2  0  0  0  0
  3 30  1  0  0  0  0
  4  5  1  0  0  0  0
  4 31  1  0  0  0  0
  5  6  2  0  0  0  0
  5 32  1  0  0  0  0
  6  7  1  0  0  0  0
  6 26  1  0  0  0  0
  7  8  1  0  0  0  0
  7 33  1  0  0  0  0
  8  9  1  0  0  0  0
  8 24  2  0  0  0  0
  9 10  2  0  0  0  0
  9 34  1  0  0  0  0
 10 11  1  0  0  0  0
 10 35  1  0  0  0  0
 11 12  2  0  0  0  0
 12 13  1  0  0  0  0
 12 24  1  0  0  0  0
 13 14  1  0  0  0  0
 13 36  1  0  0  0  0
 14 15  1  0  0  0  0
 14 22  1  0  0  0  0
 14 23  1  0  0  0  0
 15 16  1  0  0  0  0
 15 37  1  0  0  0  0
 15 38  1  0  0  0  0
 16 17  1  0  0  0  0
 16 21  1  0  0  0  0
 16 39  1  0  0  0  0
 17 18  1  0  0  0  0
 17 40  1  0  0  0  0
 17 41  1  0  0  0  0
 18 19  1  0  0  0  0
 18 23  1  0  0  0  0
 18 42  1  0  0  0  0
 19 20  1  0  0  0  0
 19 43  1  0  0  0  0
 19 44  1  0  0  0  0
 20 21  1  0  0  0  0
 20 22  1  0  0  0  0
 20 45  1  0  0  0  0
 21 46  1  0  0  0  0
 21 47  1  0  0  0  0
 22 48  1  0  0  0  0
 22 49  1  0  0  0  0
 23 50  1  0  0  0  0
 23 51  1  0  0  0  0
 24 25  1  0  0  0  0
 25 52  1  0  0  0  0
 25 53  1  0  0  0  0
M  CHG  1   9   1
M  END
$$$$
