
 OpenBabel01112423123D

 44 48  0  0  0  0  0  0  0  0999 V2000
    0.9966    0.1808   -0.3357 O   0  0  0  0  0  0  0  0  0  0  0  0
    2.2244    0.1160   -0.3256 C   0  0  0  0  0  0  0  0  0  0  0  0
    2.9350   -0.6641   -1.2146 N   0  0  0  0  0  0  0  0  0  0  0  0
    2.2237   -1.4172   -2.1623 N   0  0  0  0  0  0  0  0  0  0  0  0
    2.9249   -2.2025   -3.0605 C   0  0  0  0  0  0  0  0  0  0  0  0
    4.1556   -2.2693   -2.9926 O   0  0  0  0  0  0  0  0  0  0  0  0
    2.1479   -2.9324   -4.0556 C   0  0  0  0  0  0  0  0  0  0  0  0
    2.6569   -3.8176   -4.9906 C   0  0  0  0  0  0  0  0  0  0  0  0
    1.6472   -4.3790   -5.8216 C   0  0  0  0  0  0  0  0  0  0  0  0
    0.3890   -3.8916   -5.5122 C   0  0  0  0  0  0  0  0  0  0  0  0
    0.4448   -2.7863   -4.2163 S   0  0  0  0  0  0  0  0  0  0  0  0
   -0.8214   -4.2939   -6.2514 C   0  0  0  0  0  0  0  0  0  0  0  0
   -2.1264   -4.0648   -5.8022 C   0  0  0  0  0  0  0  0  0  0  0  0
   -3.2210   -4.5107   -6.5510 C   0  0  0  0  0  0  0  0  0  0  0  0
   -3.0253   -5.1820   -7.7573 C   0  0  0  0  0  0  0  0  0  0  0  0
   -1.7337   -5.4128   -8.2251 C   0  0  0  0  0  0  0  0  0  0  0  0
   -0.6292   -4.9870   -7.4757 C   0  0  0  0  0  0  0  0  0  0  0  0
    0.7753   -5.1991   -8.0192 C   0  0  0  0  0  0  0  0  0  0  0  0
    1.8229   -5.3934   -6.9099 C   0  0  0  0  0  0  0  0  0  0  0  0
    3.0128    0.8753    0.6813 C   0  0  0  0  0  0  0  0  0  0  0  0
    2.4011    1.1615    1.9249 C   0  0  0  0  0  0  0  0  0  0  0  0
    3.0716    1.9080    2.9005 C   0  0  0  0  0  0  0  0  0  0  0  0
    4.3328    2.3675    2.5975 C   0  0  0  0  0  0  0  0  0  0  0  0
    4.9303    2.0986    1.3864 C   0  0  0  0  0  0  0  0  0  0  0  0
    4.3035    1.3520    0.4075 C   0  0  0  0  0  0  0  0  0  0  0  0
    6.1635    2.6634    1.2838 O   0  0  0  0  0  0  0  0  0  0  0  0
    6.2507    3.3629    2.5451 C   0  0  0  0  0  0  0  0  0  0  0  0
    5.1172    3.1290    3.4058 O   0  0  0  0  0  0  0  0  0  0  0  0
    3.9339   -0.8510   -1.1468 H   0  0  0  0  0  0  0  0  0  0  0  0
    1.2102   -1.3210   -2.1750 H   0  0  0  0  0  0  0  0  0  0  0  0
    3.7141   -4.0529   -5.0594 H   0  0  0  0  0  0  0  0  0  0  0  0
   -2.3148   -3.5497   -4.8641 H   0  0  0  0  0  0  0  0  0  0  0  0
   -4.2311   -4.3328   -6.1902 H   0  0  0  0  0  0  0  0  0  0  0  0
   -3.8813   -5.5226   -8.3350 H   0  0  0  0  0  0  0  0  0  0  0  0
   -1.5940   -5.9263   -9.1733 H   0  0  0  0  0  0  0  0  0  0  0  0
    1.0344   -4.3190   -8.6215 H   0  0  0  0  0  0  0  0  0  0  0  0
    0.8001   -6.0709   -8.6836 H   0  0  0  0  0  0  0  0  0  0  0  0
    2.8309   -5.3407   -7.3367 H   0  0  0  0  0  0  0  0  0  0  0  0
    1.7048   -6.3920   -6.4683 H   0  0  0  0  0  0  0  0  0  0  0  0
    1.3935    0.8031    2.1268 H   0  0  0  0  0  0  0  0  0  0  0  0
    2.6081    2.1312    3.8559 H   0  0  0  0  0  0  0  0  0  0  0  0
    4.7950    1.1905   -0.5448 H   0  0  0  0  0  0  0  0  0  0  0  0
    6.3222    4.4385    2.3451 H   0  0  0  0  0  0  0  0  0  0  0  0
    7.1608    3.0416    3.0651 H   0  0  0  0  0  0  0  0  0  0  0  0
  1  2  2  0  0  0  0
  2  3  1  0  0  0  0
  2 20  1  0  0  0  0
  3  4  1  0  0  0  0
  3 29  1  0  0  0  0
  4  5  1  0  0  0  0
  4 30  1  0  0  0  0
  5  6  2  0  0  0  0
  5  7  1  0  0  0  0
  7  8  2  0  0  0  0
  7 11  1  0  0  0  0
  8  9  1  0  0  0  0
  8 31  1  0  0  0  0
  9 10  2  0  0  0  0
  9 19  1  0  0  0  0
 10 11  1  0  0  0  0
 10 12  1  0  0  0  0
 12 13  1  0  0  0  0
 12 17  2  0  0  0  0
 13 14  2  0  0  0  0
 13 32  1  0  0  0  0
 14 15  1  0  0  0  0
 14 33  1  0  0  0  0
 15 16  2  0  0  0  0
 15 34  1  0  0  0  0
 16 17  1  0  0  0  0
 16 35  1  0  0  0  0
 17 18  1  0  0  0  0
 18 19  1  0  0  0  0
 18 36  1  0  0  0  0
 18 37  1  0  0  0  0
 19 38  1  0  0  0  0
 19 39  1  0  0  0  0
 20 21  1  0  0  0  0
 20 25  2  0  0  0  0
 21 22  2  0  0  0  0
 21 40  1  0  0  0  0
 22 23  1  0  0  0  0
 22 41  1  0  0  0  0
 23 24  2  0  0  0  0
 23 28  1  0  0  0  0
 24 25  1  0  0  0  0
 24 26  1  0  0  0  0
 25 42  1  0  0  0  0
 26 27  1  0  0  0  0
 27 28  1  0  0  0  0
 27 43  1  0  0  0  0
 27 44  1  0  0  0  0
M  END
$$$$
