
 OpenBabel01112423053D

 57 59  0  0  0  0  0  0  0  0999 V2000
    5.4671   -2.5448   -2.1655 C   0  0  0  0  0  0  0  0  0  0  0  0
    5.5613   -1.8886   -3.4638 N   0  0  0  0  0  0  0  0  0  0  0  0
    5.5201   -2.8102   -4.5546 C   0  0  0  0  0  0  0  0  0  0  0  0
    4.8385   -2.5244   -5.7482 C   0  0  0  0  0  0  0  0  0  0  0  0
    4.8400   -3.4163   -6.8274 C   0  0  0  0  0  0  0  0  0  0  0  0
    5.5065   -4.6325   -6.7284 C   0  0  0  0  0  0  0  0  0  0  0  0
    6.1629   -4.9601   -5.5487 C   0  0  0  0  0  0  0  0  0  0  0  0
    6.1754   -4.0564   -4.4823 C   0  0  0  0  0  0  0  0  0  0  0  0
    5.6806   -0.4784   -3.5590 C   0  0  0  0  0  0  0  0  0  0  0  0
    5.6597    0.0503   -4.8051 N   0  0  0  0  0  0  0  0  0  0  0  0
    5.7572    1.3740   -4.9839 C   0  0  0  0  0  0  0  0  0  0  0  0
    5.9094    2.2910   -4.0290 N   0  0  0  0  0  0  0  0  0  0  0  0
    5.9563    1.7852   -2.7970 C   0  0  0  0  0  0  0  0  0  0  0  0
    6.1629    2.6411   -1.6685 N   0  0  0  0  0  0  0  0  0  0  0  0
    6.8517    3.8969   -1.9356 C   0  0  0  0  0  0  0  0  0  0  0  0
    7.4793    4.3118   -0.5966 C   0  0  0  0  0  0  0  0  0  0  0  0
    8.1977    5.6544   -0.6406 C   0  0  0  0  0  0  0  0  0  0  0  0
    8.4640    6.1334    0.7991 C   0  0  0  0  0  0  0  0  0  0  0  0
    9.5420    5.5799   -1.3705 C   0  0  0  0  0  0  0  0  0  0  0  0
    7.2930    6.6830   -1.2792 N   0  3  0  0  0  0  0  0  0  0  0  0
    6.5279    6.3480   -2.5478 C   0  0  0  0  0  0  0  0  0  0  0  0
    5.4440    7.4326   -2.6919 C   0  0  0  0  0  0  0  0  0  0  0  0
    7.4544    6.4392   -3.7653 C   0  0  0  0  0  0  0  0  0  0  0  0
    5.8675    4.9747   -2.3967 C   0  0  0  0  0  0  0  0  0  0  0  0
    5.8132    0.4015   -2.4686 C   0  0  0  0  0  0  0  0  0  0  0  0
    6.0532    0.1050   -1.0958 N   0  0  0  0  0  0  0  0  0  0  0  0
    5.1495   -3.5936   -2.2092 H   0  0  0  0  0  0  0  0  0  0  0  0
    4.6932   -2.0776   -1.5461 H   0  0  0  0  0  0  0  0  0  0  0  0
    6.4425   -2.5340   -1.6642 H   0  0  0  0  0  0  0  0  0  0  0  0
    4.2782   -1.6001   -5.8553 H   0  0  0  0  0  0  0  0  0  0  0  0
    4.3186   -3.1546   -7.7444 H   0  0  0  0  0  0  0  0  0  0  0  0
    5.5158   -5.3218   -7.5681 H   0  0  0  0  0  0  0  0  0  0  0  0
    6.6790   -5.9120   -5.4573 H   0  0  0  0  0  0  0  0  0  0  0  0
    6.7336   -4.3400   -3.5938 H   0  0  0  0  0  0  0  0  0  0  0  0
    5.7097    1.7264   -6.0092 H   0  0  0  0  0  0  0  0  0  0  0  0
    6.7389    2.0397   -1.0669 H   0  0  0  0  0  0  0  0  0  0  0  0
    7.6488    3.7419   -2.6720 H   0  0  0  0  0  0  0  0  0  0  0  0
    8.1783    3.5321   -0.2619 H   0  0  0  0  0  0  0  0  0  0  0  0
    6.6882    4.3395    0.1682 H   0  0  0  0  0  0  0  0  0  0  0  0
    9.1163    5.4292    1.3302 H   0  0  0  0  0  0  0  0  0  0  0  0
    7.5357    6.2150    1.3766 H   0  0  0  0  0  0  0  0  0  0  0  0
    8.9518    7.1136    0.8099 H   0  0  0  0  0  0  0  0  0  0  0  0
   10.2530    4.9713   -0.7977 H   0  0  0  0  0  0  0  0  0  0  0  0
    9.9862    6.5726   -1.4950 H   0  0  0  0  0  0  0  0  0  0  0  0
    9.4743    5.1099   -2.3517 H   0  0  0  0  0  0  0  0  0  0  0  0
    7.8206    7.5561   -1.4240 H   0  0  0  0  0  0  0  0  0  0  0  0
    6.5835    6.9305   -0.5724 H   0  0  0  0  0  0  0  0  0  0  0  0
    5.8892    8.4311   -2.7738 H   0  0  0  0  0  0  0  0  0  0  0  0
    4.7645    7.4413   -1.8321 H   0  0  0  0  0  0  0  0  0  0  0  0
    4.8375    7.2636   -3.5891 H   0  0  0  0  0  0  0  0  0  0  0  0
    8.0270    7.3734   -3.7643 H   0  0  0  0  0  0  0  0  0  0  0  0
    6.8721    6.4119   -4.6940 H   0  0  0  0  0  0  0  0  0  0  0  0
    8.1600    5.6110   -3.8326 H   0  0  0  0  0  0  0  0  0  0  0  0
    5.4018    4.6952   -3.3491 H   0  0  0  0  0  0  0  0  0  0  0  0
    5.0394    5.0359   -1.6757 H   0  0  0  0  0  0  0  0  0  0  0  0
    5.4902    0.7391   -0.5229 H   0  0  0  0  0  0  0  0  0  0  0  0
    5.9132   -0.8365   -0.7849 H   0  0  0  0  0  0  0  0  0  0  0  0
  1  2  1  0  0  0  0
  1 27  1  0  0  0  0
  1 28  1  0  0  0  0
  1 29  1  0  0  0  0
  2  3  1  0  0  0  0
  2  9  1  0  0  0  0
  3  4  1  0  0  0  0
  3  8  2  0  0  0  0
  4  5  2  0  0  0  0
  4 30  1  0  0  0  0
  5  6  1  0  0  0  0
  5 31  1  0  0  0  0
  6  7  2  0  0  0  0
  6 32  1  0  0  0  0
  7  8  1  0  0  0  0
  7 33  1  0  0  0  0
  8 34  1  0  0  0  0
  9 10  1  0  0  0  0
  9 25  2  0  0  0  0
 10 11  2  0  0  0  0
 11 12  1  0  0  0  0
 11 35  1  0  0  0  0
 12 13  2  0  0  0  0
 13 14  1  0  0  0  0
 13 25  1  0  0  0  0
 14 15  1  0  0  0  0
 14 36  1  0  0  0  0
 15 16  1  0  0  0  0
 15 24  1  0  0  0  0
 15 37  1  0  0  0  0
 16 17  1  0  0  0  0
 16 38  1  0  0  0  0
 16 39  1  0  0  0  0
 17 18  1  0  0  0  0
 17 19  1  0  0  0  0
 17 20  1  0  0  0  0
 18 40  1  0  0  0  0
 18 41  1  0  0  0  0
 18 42  1  0  0  0  0
 19 43  1  0  0  0  0
 19 44  1  0  0  0  0
 19 45  1  0  0  0  0
 20 21  1  0  0  0  0
 20 46  1  0  0  0  0
 20 47  1  0  0  0  0
 21 22  1  0  0  0  0
 21 23  1  0  0  0  0
 21 24  1  0  0  0  0
 22 48  1  0  0  0  0
 22 49  1  0  0  0  0
 22 50  1  0  0  0  0
 23 51  1  0  0  0  0
 23 52  1  0  0  0  0
 23 53  1  0  0  0  0
 24 54  1  0  0  0  0
 24 55  1  0  0  0  0
 25 26  1  0  0  0  0
 26 56  1  0  0  0  0
 26 57  1  0  0  0  0
M  CHG  1  20   1
M  END
$$$$
