
 OpenBabel01112423163D

 56 60  0  0  1  0  0  0  0  0999 V2000
    5.8548    2.7335    3.6099 C   0  0  0  0  0  0  0  0  0  0  0  0
    5.8535    1.3752    2.9324 C   0  0  0  0  0  0  0  0  0  0  0  0
    5.8674    1.4791    1.4080 C   0  0  0  0  0  0  0  0  0  0  0  0
    5.8193    0.1205    0.8126 C   0  0  0  0  0  0  0  0  0  0  0  0
    4.7882   -0.7119    0.4424 C   0  0  0  0  0  0  0  0  0  0  0  0
    5.3944   -1.9133    0.0127 C   0  0  0  0  0  0  0  0  0  0  0  0
    6.7663   -1.7464    0.1328 C   0  0  0  0  0  0  0  0  0  0  0  0
    7.8306   -2.6818   -0.1665 C   0  0  0  0  0  0  0  0  0  0  0  0
    7.5552   -3.8447   -0.4970 O   0  0  0  0  0  0  0  0  0  0  0  0
    9.1638   -2.2893   -0.1128 N   0  0  0  0  0  0  0  0  0  0  0  0
    9.7598   -1.0034    0.2044 C   0  0  0  0  0  0  0  0  0  0  0  0
   11.0849   -1.0235   -0.5511 C   0  0  2  0  0  0  0  0  0  0  0  0
   10.9267   -0.7067   -2.0368 C   0  0  0  0  0  0  0  0  0  0  0  0
   11.9604   -1.5637   -2.7618 C   0  0  0  0  0  0  0  0  0  0  0  0
   12.3247   -2.7307   -1.8184 C   0  0  1  0  0  0  0  0  0  0  0  0
   12.0625   -4.0098   -2.4181 N   0  0  0  0  0  0  0  0  0  0  0  0
   12.4329   -5.1498   -1.7468 C   0  0  0  0  0  0  0  0  0  0  0  0
   11.7915   -6.1877   -1.8393 O   0  0  0  0  0  0  0  0  0  0  0  0
   13.6506   -5.0342   -0.9220 C   0  0  0  0  0  0  0  0  0  0  0  0
   14.1599   -6.1484   -0.2523 C   0  0  0  0  0  0  0  0  0  0  0  0
   15.3939   -6.0589    0.3950 C   0  0  0  0  0  0  0  0  0  0  0  0
   15.9928   -7.2605    1.0635 C   0  0  0  0  0  0  0  0  0  0  0  0
   16.0929   -4.8439    0.3604 C   0  0  0  0  0  0  0  0  0  0  0  0
   15.5537   -3.7230   -0.2848 C   0  0  0  0  0  0  0  0  0  0  0  0
   14.3008   -3.7934   -0.8951 C   0  0  0  0  0  0  0  0  0  0  0  0
   13.7667   -2.6854   -1.5717 N   0  0  0  0  0  0  0  0  0  0  0  0
   11.5170   -2.4913   -0.5159 C   0  0  2  0  0  0  0  0  0  0  0  0
   10.1948   -3.2669   -0.4040 C   0  0  0  0  0  0  0  0  0  0  0  0
    7.0162   -0.4978    0.6275 O   0  0  0  0  0  0  0  0  0  0  0  0
    5.8267    2.6041    4.6962 H   0  0  0  0  0  0  0  0  0  0  0  0
    4.9797    3.3217    3.3164 H   0  0  0  0  0  0  0  0  0  0  0  0
    6.7561    3.3002    3.3584 H   0  0  0  0  0  0  0  0  0  0  0  0
    4.9663    0.8175    3.2574 H   0  0  0  0  0  0  0  0  0  0  0  0
    6.7261    0.8036    3.2737 H   0  0  0  0  0  0  0  0  0  0  0  0
    6.7709    2.0011    1.0705 H   0  0  0  0  0  0  0  0  0  0  0  0
    5.0098    2.0636    1.0560 H   0  0  0  0  0  0  0  0  0  0  0  0
    3.7315   -0.4915    0.5019 H   0  0  0  0  0  0  0  0  0  0  0  0
    4.9074   -2.8149   -0.3346 H   0  0  0  0  0  0  0  0  0  0  0  0
    9.9293   -0.9884    1.2881 H   0  0  0  0  0  0  0  0  0  0  0  0
    9.1406   -0.1527   -0.0834 H   0  0  0  0  0  0  0  0  0  0  0  0
   11.8312   -0.3615   -0.0995 H   0  0  0  0  0  0  0  0  0  0  0  0
   11.0806    0.3600   -2.2317 H   0  0  0  0  0  0  0  0  0  0  0  0
    9.9224   -0.9547   -2.4005 H   0  0  0  0  0  0  0  0  0  0  0  0
   12.8348   -0.9454   -3.0020 H   0  0  0  0  0  0  0  0  0  0  0  0
   11.5493   -1.9075   -3.7183 H   0  0  0  0  0  0  0  0  0  0  0  0
   11.2120   -4.1287   -2.9521 H   0  0  0  0  0  0  0  0  0  0  0  0
   13.6053   -7.0841   -0.2704 H   0  0  0  0  0  0  0  0  0  0  0  0
   15.3166   -8.1208    1.0186 H   0  0  0  0  0  0  0  0  0  0  0  0
   16.1963   -7.0483    2.1174 H   0  0  0  0  0  0  0  0  0  0  0  0
   16.9243   -7.5401    0.5618 H   0  0  0  0  0  0  0  0  0  0  0  0
   17.0740   -4.7673    0.8250 H   0  0  0  0  0  0  0  0  0  0  0  0
   16.1290   -2.8017   -0.3122 H   0  0  0  0  0  0  0  0  0  0  0  0
   14.1198   -1.7946   -1.2393 H   0  0  0  0  0  0  0  0  0  0  0  0
   12.1112   -2.6778    0.3878 H   0  0  0  0  0  0  0  0  0  0  0  0
   10.2392   -3.9809    0.4276 H   0  0  0  0  0  0  0  0  0  0  0  0
    9.9030   -3.8156   -1.3014 H   0  0  0  0  0  0  0  0  0  0  0  0
  1  2  1  0  0  0  0
  1 30  1  0  0  0  0
  1 31  1  0  0  0  0
  1 32  1  0  0  0  0
  2  3  1  0  0  0  0
  2 33  1  0  0  0  0
  2 34  1  0  0  0  0
  3  4  1  0  0  0  0
  3 35  1  0  0  0  0
  3 36  1  0  0  0  0
  4  5  2  0  0  0  0
  4 29  1  0  0  0  0
  5  6  1  0  0  0  0
  5 37  1  0  0  0  0
  6  7  2  0  0  0  0
  6 38  1  0  0  0  0
  7  8  1  0  0  0  0
  7 29  1  0  0  0  0
  8  9  2  0  0  0  0
  8 10  1  0  0  0  0
 10 11  1  0  0  0  0
 10 28  1  0  0  0  0
 11 12  1  0  0  0  0
 11 39  1  0  0  0  0
 11 40  1  0  0  0  0
 12 13  1  0  0  0  0
 12 27  1  0  0  0  0
 12 41  1  1  0  0  0
 13 14  1  0  0  0  0
 13 42  1  0  0  0  0
 13 43  1  0  0  0  0
 14 44  1  0  0  0  0
 14 45  1  0  0  0  0
 15 14  1  6  0  0  0
 15 16  1  0  0  0  0
 15 26  1  0  0  0  0
 15 27  1  0  0  0  0
 16 17  1  0  0  0  0
 16 46  1  0  0  0  0
 17 18  2  0  0  0  0
 17 19  1  0  0  0  0
 19 20  1  0  0  0  0
 19 25  2  0  0  0  0
 20 21  2  0  0  0  0
 20 47  1  0  0  0  0
 21 22  1  0  0  0  0
 21 23  1  0  0  0  0
 22 48  1  0  0  0  0
 22 49  1  0  0  0  0
 22 50  1  0  0  0  0
 23 24  2  0  0  0  0
 23 51  1  0  0  0  0
 24 25  1  0  0  0  0
 24 52  1  0  0  0  0
 25 26  1  0  0  0  0
 26 53  1  0  0  0  0
 27 28  1  0  0  0  0
 27 54  1  1  0  0  0
 28 55  1  0  0  0  0
 28 56  1  0  0  0  0
M  END
$$$$
