
 OpenBabel01112423033D

 47 48  0  0  0  0  0  0  0  0999 V2000
    2.3487    1.8798   -0.0131 C   0  0  0  0  0  0  0  0  0  0  0  0
    2.5198    0.3668    0.0397 C   0  0  0  0  0  0  0  0  0  0  0  0
    2.8980   -0.1255    1.3812 N   0  0  0  0  0  0  0  0  0  0  0  0
    1.8937   -0.3769    2.3515 C   0  0  0  0  0  0  0  0  0  0  0  0
    0.6164   -0.8513    2.0178 C   0  0  0  0  0  0  0  0  0  0  0  0
   -0.2680   -1.3181    2.9999 C   0  0  0  0  0  0  0  0  0  0  0  0
    0.0993   -1.3204    4.3425 C   0  0  0  0  0  0  0  0  0  0  0  0
    1.3255   -0.7857    4.7138 C   0  0  0  0  0  0  0  0  0  0  0  0
    2.1848   -0.2860    3.7319 C   0  0  0  0  0  0  0  0  0  0  0  0
    4.3075   -0.1684    1.6011 C   0  0  0  0  0  0  0  0  0  0  0  0
    5.0913    0.7863    1.0425 N   0  0  0  0  0  0  0  0  0  0  0  0
    6.3813    0.8222    1.4154 C   0  0  0  0  0  0  0  0  0  0  0  0
    6.9139    0.0162    2.3195 N   0  3  0  0  0  0  0  0  0  0  0  0
    6.1843   -0.9498    2.8732 C   0  0  0  0  0  0  0  0  0  0  0  0
    6.8300   -1.8106    3.7611 N   0  0  0  0  0  0  0  0  0  0  0  0
    8.1541   -1.5325    4.1564 N   0  0  0  0  0  0  0  0  0  0  0  0
    8.9718   -2.7703    3.9696 C   0  0  0  0  0  0  0  0  0  0  0  0
    9.0299   -3.1367    2.4773 C   0  0  0  0  0  0  0  0  0  0  0  0
   10.3896   -2.4530    4.4649 C   0  0  0  0  0  0  0  0  0  0  0  0
    8.4158   -3.9467    4.7961 C   0  0  0  0  0  0  0  0  0  0  0  0
    4.8589   -1.1421    2.4669 C   0  0  0  0  0  0  0  0  0  0  0  0
    4.1851   -2.3484    2.7913 N   0  0  0  0  0  0  0  0  0  0  0  0
    2.1193    2.1894   -1.0389 H   0  0  0  0  0  0  0  0  0  0  0  0
    3.2551    2.4106    0.2925 H   0  0  0  0  0  0  0  0  0  0  0  0
    1.5304    2.2124    0.6319 H   0  0  0  0  0  0  0  0  0  0  0  0
    3.2733    0.0633   -0.7005 H   0  0  0  0  0  0  0  0  0  0  0  0
    1.5989   -0.1001   -0.3220 H   0  0  0  0  0  0  0  0  0  0  0  0
    0.2845   -0.9335    0.9888 H   0  0  0  0  0  0  0  0  0  0  0  0
   -1.2428   -1.7055    2.7115 H   0  0  0  0  0  0  0  0  0  0  0  0
   -0.5728   -1.7249    5.0957 H   0  0  0  0  0  0  0  0  0  0  0  0
    1.6171   -0.7712    5.7612 H   0  0  0  0  0  0  0  0  0  0  0  0
    3.1240    0.1431    4.0716 H   0  0  0  0  0  0  0  0  0  0  0  0
    7.0232    1.5699    0.9607 H   0  0  0  0  0  0  0  0  0  0  0  0
    7.8880    0.0443    2.6080 H   0  0  0  0  0  0  0  0  0  0  0  0
    6.2046   -2.2586    4.4362 H   0  0  0  0  0  0  0  0  0  0  0  0
    8.1871   -1.2987    5.1617 H   0  0  0  0  0  0  0  0  0  0  0  0
    9.4191   -2.3031    1.8810 H   0  0  0  0  0  0  0  0  0  0  0  0
    8.0428   -3.3988    2.0781 H   0  0  0  0  0  0  0  0  0  0  0  0
    9.6826   -3.9991    2.3118 H   0  0  0  0  0  0  0  0  0  0  0  0
   10.8294   -1.6153    3.9122 H   0  0  0  0  0  0  0  0  0  0  0  0
   11.0488   -3.3187    4.3354 H   0  0  0  0  0  0  0  0  0  0  0  0
   10.3941   -2.1920    5.5296 H   0  0  0  0  0  0  0  0  0  0  0  0
    7.4095   -4.2401    4.4738 H   0  0  0  0  0  0  0  0  0  0  0  0
    8.3615   -3.6944    5.8619 H   0  0  0  0  0  0  0  0  0  0  0  0
    9.0520   -4.8310    4.6941 H   0  0  0  0  0  0  0  0  0  0  0  0
    4.2021   -2.6276    3.7665 H   0  0  0  0  0  0  0  0  0  0  0  0
    3.2257   -2.3710    2.4350 H   0  0  0  0  0  0  0  0  0  0  0  0
  1  2  1  0  0  0  0
  1 23  1  0  0  0  0
  1 24  1  0  0  0  0
  1 25  1  0  0  0  0
  2  3  1  0  0  0  0
  2 26  1  0  0  0  0
  2 27  1  0  0  0  0
  3  4  1  0  0  0  0
  3 10  1  0  0  0  0
  4  5  1  0  0  0  0
  4  9  2  0  0  0  0
  5  6  2  0  0  0  0
  5 28  1  0  0  0  0
  6  7  1  0  0  0  0
  6 29  1  0  0  0  0
  7  8  2  0  0  0  0
  7 30  1  0  0  0  0
  8  9  1  0  0  0  0
  8 31  1  0  0  0  0
  9 32  1  0  0  0  0
 10 11  1  0  0  0  0
 10 21  2  0  0  0  0
 11 12  2  0  0  0  0
 12 13  1  0  0  0  0
 12 33  1  0  0  0  0
 13 14  2  0  0  0  0
 13 34  1  0  0  0  0
 14 15  1  0  0  0  0
 14 21  1  0  0  0  0
 15 16  1  0  0  0  0
 15 35  1  0  0  0  0
 16 17  1  0  0  0  0
 16 36  1  0  0  0  0
 17 18  1  0  0  0  0
 17 19  1  0  0  0  0
 17 20  1  0  0  0  0
 18 37  1  0  0  0  0
 18 38  1  0  0  0  0
 18 39  1  0  0  0  0
 19 40  1  0  0  0  0
 19 41  1  0  0  0  0
 19 42  1  0  0  0  0
 20 43  1  0  0  0  0
 20 44  1  0  0  0  0
 20 45  1  0  0  0  0
 21 22  1  0  0  0  0
 22 46  1  0  0  0  0
 22 47  1  0  0  0  0
M  CHG  1  13   1
M  END
$$$$
