
 OpenBabel01112423053D

 42 44  0  0  0  0  0  0  0  0999 V2000
    2.4800   -0.2196   -1.0526 C   0  0  0  0  0  0  0  0  0  0  0  0
    1.0084   -0.4104   -1.2818 C   0  0  0  0  0  0  0  0  0  0  0  0
    0.3214    0.3187   -2.2545 C   0  0  0  0  0  0  0  0  0  0  0  0
   -1.0477    0.1314   -2.4068 C   0  0  0  0  0  0  0  0  0  0  0  0
   -1.6877   -0.7370   -1.6197 N   0  3  0  0  0  0  0  0  0  0  0  0
   -1.0794   -1.4735   -0.6815 C   0  0  0  0  0  0  0  0  0  0  0  0
   -1.8403   -2.2737    0.1680 N   0  0  0  0  0  0  0  0  0  0  0  0
   -3.2464   -2.4297    0.1436 C   0  0  0  0  0  0  0  0  0  0  0  0
   -3.9353   -1.8113   -0.8468 N   0  0  0  0  0  0  0  0  0  0  0  0
   -5.2745   -1.9208   -0.7582 C   0  0  0  0  0  0  0  0  0  0  0  0
   -5.9617   -2.5487    0.2018 N   0  0  0  0  0  0  0  0  0  0  0  0
   -5.2573   -3.1305    1.1870 C   0  0  0  0  0  0  0  0  0  0  0  0
   -5.9302   -3.7017    2.2879 N   0  0  0  0  0  0  0  0  0  0  0  0
   -7.3537   -3.9964    2.0870 C   0  0  0  0  0  0  0  0  0  0  0  0
   -7.9297   -4.5216    3.4124 C   0  0  0  0  0  0  0  0  0  0  0  0
   -9.3334   -5.0086    3.2755 C   0  0  0  0  0  0  0  0  0  0  0  0
  -10.5036   -4.3021    3.4689 C   0  0  0  0  0  0  0  0  0  0  0  0
  -11.6606   -5.1132    3.2881 C   0  0  0  0  0  0  0  0  0  0  0  0
  -11.3367   -6.4107    2.9624 C   0  0  0  0  0  0  0  0  0  0  0  0
   -9.6464   -6.6441    2.8669 S   0  0  0  0  0  0  0  0  0  0  0  0
   -3.8535   -3.1220    1.2031 C   0  0  0  0  0  0  0  0  0  0  0  0
   -3.1139   -3.5769    2.3123 N   0  0  0  0  0  0  0  0  0  0  0  0
    0.2947   -1.3172   -0.4930 C   0  0  0  0  0  0  0  0  0  0  0  0
    2.8918    0.5545   -1.7074 H   0  0  0  0  0  0  0  0  0  0  0  0
    3.0158   -1.1535   -1.2496 H   0  0  0  0  0  0  0  0  0  0  0  0
    2.6614    0.0864   -0.0166 H   0  0  0  0  0  0  0  0  0  0  0  0
    0.8407    1.0420   -2.8805 H   0  0  0  0  0  0  0  0  0  0  0  0
   -1.6499    0.6712   -3.1282 H   0  0  0  0  0  0  0  0  0  0  0  0
   -2.7030   -0.8729   -1.6852 H   0  0  0  0  0  0  0  0  0  0  0  0
   -1.3801   -3.1382    0.4334 H   0  0  0  0  0  0  0  0  0  0  0  0
   -5.8645   -1.4408   -1.5337 H   0  0  0  0  0  0  0  0  0  0  0  0
   -5.4484   -4.5459    2.5711 H   0  0  0  0  0  0  0  0  0  0  0  0
   -7.4542   -4.7584    1.3029 H   0  0  0  0  0  0  0  0  0  0  0  0
   -7.9138   -3.1071    1.7732 H   0  0  0  0  0  0  0  0  0  0  0  0
   -7.8851   -3.7262    4.1648 H   0  0  0  0  0  0  0  0  0  0  0  0
   -7.2899   -5.3296    3.7976 H   0  0  0  0  0  0  0  0  0  0  0  0
  -10.5305   -3.2527    3.7420 H   0  0  0  0  0  0  0  0  0  0  0  0
  -12.6803   -4.7698    3.3981 H   0  0  0  0  0  0  0  0  0  0  0  0
  -12.0120   -7.2348    2.7788 H   0  0  0  0  0  0  0  0  0  0  0  0
   -3.6288   -4.1255    2.9922 H   0  0  0  0  0  0  0  0  0  0  0  0
   -2.1661   -3.8917    2.1749 H   0  0  0  0  0  0  0  0  0  0  0  0
    0.8074   -1.8747    0.2894 H   0  0  0  0  0  0  0  0  0  0  0  0
  1  2  1  0  0  0  0
  1 24  1  0  0  0  0
  1 25  1  0  0  0  0
  1 26  1  0  0  0  0
  2  3  1  0  0  0  0
  2 23  2  0  0  0  0
  3  4  2  0  0  0  0
  3 27  1  0  0  0  0
  4  5  1  0  0  0  0
  4 28  1  0  0  0  0
  5  6  2  0  0  0  0
  5 29  1  0  0  0  0
  6  7  1  0  0  0  0
  6 23  1  0  0  0  0
  7  8  1  0  0  0  0
  7 30  1  0  0  0  0
  8  9  1  0  0  0  0
  8 21  2  0  0  0  0
  9 10  2  0  0  0  0
 10 11  1  0  0  0  0
 10 31  1  0  0  0  0
 11 12  2  0  0  0  0
 12 13  1  0  0  0  0
 12 21  1  0  0  0  0
 13 14  1  0  0  0  0
 13 32  1  0  0  0  0
 14 15  1  0  0  0  0
 14 33  1  0  0  0  0
 14 34  1  0  0  0  0
 15 16  1  0  0  0  0
 15 35  1  0  0  0  0
 15 36  1  0  0  0  0
 16 17  2  0  0  0  0
 16 20  1  0  0  0  0
 17 18  1  0  0  0  0
 17 37  1  0  0  0  0
 18 19  2  0  0  0  0
 18 38  1  0  0  0  0
 19 20  1  0  0  0  0
 19 39  1  0  0  0  0
 21 22  1  0  0  0  0
 22 40  1  0  0  0  0
 22 41  1  0  0  0  0
 23 42  1  0  0  0  0
M  CHG  1   5   1
M  END
$$$$
