
 OpenBabel01112423043D

 54 56  0  0  0  0  0  0  0  0999 V2000
    2.2456    0.8402   -0.7685 C   0  0  0  0  0  0  0  0  0  0  0  0
    2.1411   -0.0584    0.3288 O   0  0  0  0  0  0  0  0  0  0  0  0
    2.9272   -1.1786    0.3027 C   0  0  0  0  0  0  0  0  0  0  0  0
    4.1152   -1.2616   -0.4366 C   0  0  0  0  0  0  0  0  0  0  0  0
    4.9315   -2.3978   -0.3695 C   0  0  0  0  0  0  0  0  0  0  0  0
    4.5865   -3.4727    0.4525 C   0  0  0  0  0  0  0  0  0  0  0  0
    5.4789   -4.6880    0.5544 C   0  0  0  0  0  0  0  0  0  0  0  0
    4.7789   -5.9736    0.0963 C   0  0  0  0  0  0  0  0  0  0  0  0
    5.6824   -7.1308    0.2168 N   0  0  0  0  0  0  0  0  0  0  0  0
    5.1412   -8.3411   -0.2660 C   0  0  0  0  0  0  0  0  0  0  0  0
    3.9211   -8.3396   -0.8288 N   0  0  0  0  0  0  0  0  0  0  0  0
    3.4685   -9.5165   -1.2710 C   0  0  0  0  0  0  0  0  0  0  0  0
    4.1529  -10.6514   -1.2446 N   0  3  0  0  0  0  0  0  0  0  0  0
    5.3885  -10.7014   -0.7411 C   0  0  0  0  0  0  0  0  0  0  0  0
    6.0984  -11.8923   -0.7428 N   0  0  0  0  0  0  0  0  0  0  0  0
    5.5438  -13.2262   -0.9644 C   0  0  0  0  0  0  0  0  0  0  0  0
    6.5868  -14.2750   -0.5720 C   0  0  0  0  0  0  0  0  0  0  0  0
    6.3915  -15.4665   -1.5001 C   0  0  0  0  0  0  0  0  0  0  0  0
    5.4047  -15.0374   -2.5750 C   0  0  0  0  0  0  0  0  0  0  0  0
    5.2285  -13.5310   -2.4267 C   0  0  0  0  0  0  0  0  0  0  0  0
    5.9332   -9.5112   -0.1975 C   0  0  0  0  0  0  0  0  0  0  0  0
    7.1034   -9.5326    0.5983 N   0  0  0  0  0  0  0  0  0  0  0  0
    3.4062   -3.3823    1.2022 C   0  0  0  0  0  0  0  0  0  0  0  0
    2.5652   -2.2615    1.1191 C   0  0  0  0  0  0  0  0  0  0  0  0
    1.4561   -2.3639    1.9210 O   0  0  0  0  0  0  0  0  0  0  0  0
    0.2836   -1.6873    1.4818 C   0  0  0  0  0  0  0  0  0  0  0  0
    1.4806    1.6122   -0.6397 H   0  0  0  0  0  0  0  0  0  0  0  0
    2.0480    0.3257   -1.7146 H   0  0  0  0  0  0  0  0  0  0  0  0
    3.2168    1.3437   -0.7845 H   0  0  0  0  0  0  0  0  0  0  0  0
    4.4557   -0.4377   -1.0557 H   0  0  0  0  0  0  0  0  0  0  0  0
    5.8510   -2.4168   -0.9516 H   0  0  0  0  0  0  0  0  0  0  0  0
    5.8195   -4.7882    1.5926 H   0  0  0  0  0  0  0  0  0  0  0  0
    6.3844   -4.5388   -0.0483 H   0  0  0  0  0  0  0  0  0  0  0  0
    4.4670   -5.8461   -0.9489 H   0  0  0  0  0  0  0  0  0  0  0  0
    3.8802   -6.1498    0.6999 H   0  0  0  0  0  0  0  0  0  0  0  0
    5.9999   -7.2644    1.1759 H   0  0  0  0  0  0  0  0  0  0  0  0
    2.4658   -9.5416   -1.6899 H   0  0  0  0  0  0  0  0  0  0  0  0
    3.7259  -11.4893   -1.6041 H   0  0  0  0  0  0  0  0  0  0  0  0
    7.0559  -11.7745   -1.0772 H   0  0  0  0  0  0  0  0  0  0  0  0
    4.6464  -13.3655   -0.3493 H   0  0  0  0  0  0  0  0  0  0  0  0
    6.4697  -14.5657    0.4779 H   0  0  0  0  0  0  0  0  0  0  0  0
    7.6104  -13.8961   -0.6803 H   0  0  0  0  0  0  0  0  0  0  0  0
    6.0109  -16.3345   -0.9506 H   0  0  0  0  0  0  0  0  0  0  0  0
    7.3483  -15.7632   -1.9446 H   0  0  0  0  0  0  0  0  0  0  0  0
    4.4486  -15.5539   -2.4273 H   0  0  0  0  0  0  0  0  0  0  0  0
    5.7602  -15.3014   -3.5771 H   0  0  0  0  0  0  0  0  0  0  0  0
    4.2006  -13.2531   -2.6864 H   0  0  0  0  0  0  0  0  0  0  0  0
    5.8936  -12.9966   -3.1133 H   0  0  0  0  0  0  0  0  0  0  0  0
    7.7545  -10.2929    0.4308 H   0  0  0  0  0  0  0  0  0  0  0  0
    7.5597   -8.6246    0.6786 H   0  0  0  0  0  0  0  0  0  0  0  0
    3.1170   -4.1910    1.8703 H   0  0  0  0  0  0  0  0  0  0  0  0
   -0.5701   -2.1404    1.9961 H   0  0  0  0  0  0  0  0  0  0  0  0
    0.1176   -1.8069    0.4054 H   0  0  0  0  0  0  0  0  0  0  0  0
    0.3088   -0.6332    1.7721 H   0  0  0  0  0  0  0  0  0  0  0  0
  1  2  1  0  0  0  0
  1 27  1  0  0  0  0
  1 28  1  0  0  0  0
  1 29  1  0  0  0  0
  2  3  1  0  0  0  0
  3  4  1  0  0  0  0
  3 24  2  0  0  0  0
  4  5  2  0  0  0  0
  4 30  1  0  0  0  0
  5  6  1  0  0  0  0
  5 31  1  0  0  0  0
  6  7  1  0  0  0  0
  6 23  2  0  0  0  0
  7  8  1  0  0  0  0
  7 32  1  0  0  0  0
  7 33  1  0  0  0  0
  8  9  1  0  0  0  0
  8 34  1  0  0  0  0
  8 35  1  0  0  0  0
  9 10  1  0  0  0  0
  9 36  1  0  0  0  0
 10 11  1  0  0  0  0
 10 21  2  0  0  0  0
 11 12  2  0  0  0  0
 12 13  1  0  0  0  0
 12 37  1  0  0  0  0
 13 14  2  0  0  0  0
 13 38  1  0  0  0  0
 14 15  1  0  0  0  0
 14 21  1  0  0  0  0
 15 16  1  0  0  0  0
 15 39  1  0  0  0  0
 16 17  1  0  0  0  0
 16 20  1  0  0  0  0
 16 40  1  0  0  0  0
 17 18  1  0  0  0  0
 17 41  1  0  0  0  0
 17 42  1  0  0  0  0
 18 19  1  0  0  0  0
 18 43  1  0  0  0  0
 18 44  1  0  0  0  0
 19 20  1  0  0  0  0
 19 45  1  0  0  0  0
 19 46  1  0  0  0  0
 20 47  1  0  0  0  0
 20 48  1  0  0  0  0
 21 22  1  0  0  0  0
 22 49  1  0  0  0  0
 22 50  1  0  0  0  0
 23 24  1  0  0  0  0
 23 51  1  0  0  0  0
 24 25  1  0  0  0  0
 25 26  1  0  0  0  0
 26 52  1  0  0  0  0
 26 53  1  0  0  0  0
 26 54  1  0  0  0  0
M  CHG  1  13   1
M  END
$$$$
