
 OpenBabel01112423103D

 54 57  0  0  1  0  0  0  0  0999 V2000
    2.5110   -0.9668   -0.6250 C   0  0  0  0  0  0  0  0  0  0  0  0
    1.1014   -0.4411   -0.5602 C   0  0  0  0  0  0  0  0  0  0  0  0
    0.7453    0.5891    0.3217 C   0  0  0  0  0  0  0  0  0  0  0  0
   -0.6009    0.8679    0.5859 C   0  0  0  0  0  0  0  0  0  0  0  0
   -1.5812    0.0931   -0.0290 C   0  0  0  0  0  0  0  0  0  0  0  0
   -2.9080   -0.0158    0.4903 N   0  0  0  0  0  0  0  0  0  0  0  0
   -3.8776   -0.4097   -0.3626 N   0  0  0  0  0  0  0  0  0  0  0  0
   -4.8847   -0.7619    0.4461 C   0  0  0  0  0  0  0  0  0  0  0  0
   -6.1947   -0.2015   -0.0350 C   0  0  0  0  0  0  0  0  0  0  0  0
   -4.3702   -1.0676    1.7643 C   0  0  0  0  0  0  0  0  0  0  0  0
   -3.3774   -0.1360    1.8232 C   0  0  0  0  0  0  0  0  0  0  0  0
   -2.6775    0.0285    2.9070 O   0  0  0  0  0  0  0  0  0  0  0  0
   -2.0457   -1.1243    3.2964 C   0  0  0  0  0  0  0  0  0  0  0  0
   -0.7476   -1.0307    2.7762 N   0  0  0  0  0  0  0  0  0  0  0  0
   -2.6515   -2.2778    3.9602 C   0  0  0  0  0  0  0  0  0  0  0  0
   -1.2312   -2.5333    4.4376 C   0  0  0  0  0  0  0  0  0  0  0  0
   -0.0530   -2.7452    4.8337 N   0  0  0  0  0  0  0  0  0  0  0  0
   -4.0968   -2.4375    2.7402 C   0  0  2  0  0  0  0  0  0  0  0  0
   -4.8802   -3.5855    1.6969 C   0  0  0  0  0  0  0  0  0  0  0  0
   -6.1336   -4.1282    2.0667 C   0  0  0  0  0  0  0  0  0  0  0  0
   -7.1444   -4.6905    1.0962 C   0  0  0  0  0  0  0  0  0  0  0  0
   -7.0022   -4.7111   -0.3077 C   0  0  0  0  0  0  0  0  0  0  0  0
   -8.1001   -5.2069   -1.0220 O   0  0  0  0  0  0  0  0  0  0  0  0
   -8.2950   -5.2888   -2.4792 C   0  0  0  0  0  0  0  0  0  0  0  0
   -9.1421   -6.5430   -2.8862 C   0  0  0  0  0  0  0  0  0  0  0  0
   -9.1448   -4.1241   -3.0240 C   0  0  0  0  0  0  0  0  0  0  0  0
   -5.7802   -4.1993   -0.7147 C   0  0  0  0  0  0  0  0  0  0  0  0
   -4.7399   -3.6751    0.2619 C   0  0  0  0  0  0  0  0  0  0  0  0
   -1.2283   -0.7868   -1.0670 C   0  0  0  0  0  0  0  0  0  0  0  0
    0.1099   -1.0712   -1.3160 C   0  0  0  0  0  0  0  0  0  0  0  0
    3.1852   -0.4018    0.0297 H   0  0  0  0  0  0  0  0  0  0  0  0
    2.8951   -0.9252   -1.6438 H   0  0  0  0  0  0  0  0  0  0  0  0
    2.5234   -1.9996   -0.2795 H   0  0  0  0  0  0  0  0  0  0  0  0
    1.5164    1.1224    0.8743 H   0  0  0  0  0  0  0  0  0  0  0  0
   -0.8621    1.6133    1.3338 H   0  0  0  0  0  0  0  0  0  0  0  0
   -6.0102    0.4696   -0.9000 H   0  0  0  0  0  0  0  0  0  0  0  0
   -6.6619    0.4366    0.7197 H   0  0  0  0  0  0  0  0  0  0  0  0
   -6.8827   -0.9671   -0.3891 H   0  0  0  0  0  0  0  0  0  0  0  0
   -0.3612   -0.1088    2.7666 H   0  0  0  0  0  0  0  0  0  0  0  0
   -0.0401   -1.7660    2.8983 H   0  0  0  0  0  0  0  0  0  0  0  0
   -4.8988   -2.3032    3.4867 H   0  0  0  0  0  0  0  0  0  0  0  0
   -6.4814   -4.0931    3.0894 H   0  0  0  0  0  0  0  0  0  0  0  0
   -8.0795   -5.0642    1.5069 H   0  0  0  0  0  0  0  0  0  0  0  0
   -7.3403   -5.3440   -3.0091 H   0  0  0  0  0  0  0  0  0  0  0  0
  -10.1307   -6.5494   -2.4049 H   0  0  0  0  0  0  0  0  0  0  0  0
   -8.6539   -7.4874   -2.6375 H   0  0  0  0  0  0  0  0  0  0  0  0
   -9.3395   -6.5592   -3.9730 H   0  0  0  0  0  0  0  0  0  0  0  0
  -10.1334   -4.0850   -2.5417 H   0  0  0  0  0  0  0  0  0  0  0  0
   -9.3338   -4.2373   -4.1063 H   0  0  0  0  0  0  0  0  0  0  0  0
   -8.6626   -3.1632   -2.8694 H   0  0  0  0  0  0  0  0  0  0  0  0
   -5.5678   -4.1136   -1.7763 H   0  0  0  0  0  0  0  0  0  0  0  0
   -3.8799   -3.2098   -0.2251 H   0  0  0  0  0  0  0  0  0  0  0  0
   -1.9852   -1.3672   -1.5950 H   0  0  0  0  0  0  0  0  0  0  0  0
    0.3574   -1.8555   -2.0303 H   0  0  0  0  0  0  0  0  0  0  0  0
  1  2  1  0  0  0  0
  1 31  1  0  0  0  0
  1 32  1  0  0  0  0
  1 33  1  0  0  0  0
  2  3  1  0  0  0  0
  2 30  2  0  0  0  0
  3  4  2  0  0  0  0
  3 34  1  0  0  0  0
  4  5  1  0  0  0  0
  4 35  1  0  0  0  0
  5  6  1  0  0  0  0
  5 29  2  0  0  0  0
  6  7  1  0  0  0  0
  6 11  1  0  0  0  0
  7  8  2  0  0  0  0
  8  9  1  0  0  0  0
  8 10  1  0  0  0  0
  9 36  1  0  0  0  0
  9 37  1  0  0  0  0
  9 38  1  0  0  0  0
 10 11  2  0  0  0  0
 10 18  1  0  0  0  0
 11 12  1  0  0  0  0
 12 13  1  0  0  0  0
 13 14  1  0  0  0  0
 13 15  2  0  0  0  0
 14 39  1  0  0  0  0
 14 40  1  0  0  0  0
 15 16  1  0  0  0  0
 15 18  1  0  0  0  0
 16 17  3  0  0  0  0
 18 19  1  0  0  0  0
 18 41  1  1  0  0  0
 19 20  1  0  0  0  0
 19 28  2  0  0  0  0
 20 21  2  0  0  0  0
 20 42  1  0  0  0  0
 21 22  1  0  0  0  0
 21 43  1  0  0  0  0
 22 23  1  0  0  0  0
 22 27  2  0  0  0  0
 23 24  1  0  0  0  0
 24 25  1  0  0  0  0
 24 26  1  0  0  0  0
 24 44  1  0  0  0  0
 25 45  1  0  0  0  0
 25 46  1  0  0  0  0
 25 47  1  0  0  0  0
 26 48  1  0  0  0  0
 26 49  1  0  0  0  0
 26 50  1  0  0  0  0
 27 28  1  0  0  0  0
 27 51  1  0  0  0  0
 28 52  1  0  0  0  0
 29 30  1  0  0  0  0
 29 53  1  0  0  0  0
 30 54  1  0  0  0  0
M  END
$$$$
