
 OpenBabel01112423163D

 52 56  0  0  1  0  0  0  0  0999 V2000
    1.0436   -0.4938    0.3496 C   0  0  0  0  0  0  0  0  0  0  0  0
    2.4668   -0.6006    0.4243 O   0  0  0  0  0  0  0  0  0  0  0  0
    3.0476   -1.1020   -0.6988 C   0  0  0  0  0  0  0  0  0  0  0  0
    2.4271   -1.4341   -1.7029 O   0  0  0  0  0  0  0  0  0  0  0  0
    4.5306   -1.0956   -0.6212 C   0  0  0  0  0  0  0  0  0  0  0  0
    5.2627   -0.7700    0.4717 C   0  0  0  0  0  0  0  0  0  0  0  0
    4.7748   -0.5507    1.7438 N   0  0  0  0  0  0  0  0  0  0  0  0
    6.6708   -0.6318    0.4070 O   0  0  0  0  0  0  0  0  0  0  0  0
    7.2097   -0.6449   -0.7960 C   0  0  0  0  0  0  0  0  0  0  0  0
    6.6070   -0.9891   -1.9625 C   0  0  0  0  0  0  0  0  0  0  0  0
    7.5662   -0.7913   -2.9651 C   0  0  0  0  0  0  0  0  0  0  0  0
    7.4126   -0.9856   -4.4460 C   0  0  0  0  0  0  0  0  0  0  0  0
    8.7353   -0.3993   -2.4443 N   0  0  0  0  0  0  0  0  0  0  0  0
    8.5543   -0.3917   -1.0855 N   0  0  0  0  0  0  0  0  0  0  0  0
    9.6407   -0.1467   -0.2089 C   0  0  0  0  0  0  0  0  0  0  0  0
   10.9197    0.0838   -0.7443 C   0  0  0  0  0  0  0  0  0  0  0  0
   12.0191    0.2777    0.0869 C   0  0  0  0  0  0  0  0  0  0  0  0
   11.8615    0.2516    1.4718 C   0  0  0  0  0  0  0  0  0  0  0  0
   10.5986    0.0293    2.0203 C   0  0  0  0  0  0  0  0  0  0  0  0
    9.4927   -0.1678    1.1892 C   0  0  0  0  0  0  0  0  0  0  0  0
    5.1959   -1.4566   -1.9442 C   0  0  1  0  0  0  0  0  0  0  0  0
    5.2705   -2.9715   -2.1244 C   0  0  0  0  0  0  0  0  0  0  0  0
    4.4085   -3.5702   -3.0515 C   0  0  0  0  0  0  0  0  0  0  0  0
    4.3261   -4.9573   -3.1374 C   0  0  0  0  0  0  0  0  0  0  0  0
    5.2135   -5.7602   -2.4131 C   0  0  0  0  0  0  0  0  0  0  0  0
    5.1793   -7.1496   -2.5065 C   0  0  0  0  0  0  0  0  0  0  0  0
    6.3529   -7.8711   -2.3703 C   0  0  0  0  0  0  0  0  0  0  0  0
    7.4102   -7.2862   -1.6884 C   0  0  0  0  0  0  0  0  0  0  0  0
    7.2760   -5.9882   -1.1871 C   0  0  0  0  0  0  0  0  0  0  0  0
    6.2164   -5.1785   -1.6305 C   0  0  0  0  0  0  0  0  0  0  0  0
    6.1417   -3.8010   -1.3806 C   0  0  0  0  0  0  0  0  0  0  0  0
    0.6931   -0.0227    1.2714 H   0  0  0  0  0  0  0  0  0  0  0  0
    0.5906   -1.4869    0.2699 H   0  0  0  0  0  0  0  0  0  0  0  0
    0.7484    0.1386   -0.4939 H   0  0  0  0  0  0  0  0  0  0  0  0
    3.7847   -0.3036    1.7592 H   0  0  0  0  0  0  0  0  0  0  0  0
    5.3617    0.0726    2.2869 H   0  0  0  0  0  0  0  0  0  0  0  0
    6.3934   -1.2253   -4.7050 H   0  0  0  0  0  0  0  0  0  0  0  0
    8.0554   -1.8082   -4.7802 H   0  0  0  0  0  0  0  0  0  0  0  0
    7.7113   -0.0882   -4.9659 H   0  0  0  0  0  0  0  0  0  0  0  0
   11.0760    0.0906   -1.8265 H   0  0  0  0  0  0  0  0  0  0  0  0
   13.0031    0.4430   -0.3420 H   0  0  0  0  0  0  0  0  0  0  0  0
   12.7158    0.4037    2.1227 H   0  0  0  0  0  0  0  0  0  0  0  0
   10.4722    0.0036    3.1002 H   0  0  0  0  0  0  0  0  0  0  0  0
    8.5405   -0.3477    1.6706 H   0  0  0  0  0  0  0  0  0  0  0  0
    4.6756   -0.9778   -2.7846 H   0  0  0  0  0  0  0  0  0  0  0  0
    3.7792   -2.9594   -3.6962 H   0  0  0  0  0  0  0  0  0  0  0  0
    3.6456   -5.4016   -3.8603 H   0  0  0  0  0  0  0  0  0  0  0  0
    4.2271   -7.6673   -2.5739 H   0  0  0  0  0  0  0  0  0  0  0  0
    6.4147   -8.8866   -2.7499 H   0  0  0  0  0  0  0  0  0  0  0  0
    8.3158   -7.8559   -1.5099 H   0  0  0  0  0  0  0  0  0  0  0  0
    8.0578   -5.5825   -0.5523 H   0  0  0  0  0  0  0  0  0  0  0  0
    6.8204   -3.3741   -0.6444 H   0  0  0  0  0  0  0  0  0  0  0  0
  1  2  1  0  0  0  0
  1 32  1  0  0  0  0
  1 33  1  0  0  0  0
  1 34  1  0  0  0  0
  2  3  1  0  0  0  0
  3  4  2  0  0  0  0
  3  5  1  0  0  0  0
  5  6  2  0  0  0  0
  5 21  1  0  0  0  0
  6  7  1  0  0  0  0
  6  8  1  0  0  0  0
  7 35  1  0  0  0  0
  7 36  1  0  0  0  0
  8  9  1  0  0  0  0
  9 10  2  0  0  0  0
  9 14  1  0  0  0  0
 10 11  1  0  0  0  0
 10 21  1  0  0  0  0
 11 12  1  0  0  0  0
 11 13  2  0  0  0  0
 12 37  1  0  0  0  0
 12 38  1  0  0  0  0
 12 39  1  0  0  0  0
 13 14  1  0  0  0  0
 14 15  1  0  0  0  0
 15 16  1  0  0  0  0
 15 20  2  0  0  0  0
 16 17  2  0  0  0  0
 16 40  1  0  0  0  0
 17 18  1  0  0  0  0
 17 41  1  0  0  0  0
 18 19  2  0  0  0  0
 18 42  1  0  0  0  0
 19 20  1  0  0  0  0
 19 43  1  0  0  0  0
 20 44  1  0  0  0  0
 21 22  1  0  0  0  0
 21 45  1  6  0  0  0
 22 23  1  0  0  0  0
 22 31  2  0  0  0  0
 23 24  2  0  0  0  0
 23 46  1  0  0  0  0
 24 25  1  0  0  0  0
 24 47  1  0  0  0  0
 25 26  1  0  0  0  0
 25 30  2  0  0  0  0
 26 27  2  0  0  0  0
 26 48  1  0  0  0  0
 27 28  1  0  0  0  0
 27 49  1  0  0  0  0
 28 29  2  0  0  0  0
 28 50  1  0  0  0  0
 29 30  1  0  0  0  0
 29 51  1  0  0  0  0
 30 31  1  0  0  0  0
 31 52  1  0  0  0  0
M  END
$$$$
