
 OpenBabel01112423073D

 38 41  0  0  0  0  0  0  0  0999 V2000
   -2.8742   -3.7726   -5.4217 C   0  0  0  0  0  0  0  0  0  0  0  0
   -2.7451   -2.2999   -5.1610 C   0  0  0  0  0  0  0  0  0  0  0  0
   -2.5348   -1.4094   -6.2262 C   0  0  0  0  0  0  0  0  0  0  0  0
   -2.3509   -0.0444   -6.0085 C   0  0  0  0  0  0  0  0  0  0  0  0
   -2.3559    0.4841   -4.7171 C   0  0  0  0  0  0  0  0  0  0  0  0
   -2.5602   -0.4020   -3.6514 C   0  0  0  0  0  0  0  0  0  0  0  0
   -2.5685   -0.0713   -1.9625 S   0  0  0  0  0  0  0  0  0  0  0  0
   -2.7898   -1.7355   -1.6416 C   0  0  0  0  0  0  0  0  0  0  0  0
   -2.7187   -2.2307   -0.3862 N   0  0  0  0  0  0  0  0  0  0  0  0
   -2.4978   -3.6083   -0.1847 C   0  0  0  0  0  0  0  0  0  0  0  0
   -2.8303   -4.4762   -1.1462 N   0  3  0  0  0  0  0  0  0  0  0  0
   -2.5439   -5.7626   -1.0291 C   0  0  0  0  0  0  0  0  0  0  0  0
   -1.9230   -6.3023    0.0310 N   0  0  0  0  0  0  0  0  0  0  0  0
   -1.6004   -5.4662    1.0464 C   0  0  0  0  0  0  0  0  0  0  0  0
   -0.9276   -6.0970    2.0992 N   0  0  0  0  0  0  0  0  0  0  0  0
   -0.9176   -5.7407    3.4014 C   0  0  0  0  0  0  0  0  0  0  0  0
   -1.6363   -4.7714    3.9304 N   0  0  0  0  0  0  0  0  0  0  0  0
   -1.3110   -4.5854    5.2578 C   0  0  0  0  0  0  0  0  0  0  0  0
   -0.3173   -5.4085    5.7346 C   0  0  0  0  0  0  0  0  0  0  0  0
    0.1445   -6.5212    4.5125 S   0  0  0  0  0  0  0  0  0  0  0  0
   -1.8990   -4.0809    0.9970 C   0  0  0  0  0  0  0  0  0  0  0  0
   -1.3549   -3.1187    1.8963 N   0  0  0  0  0  0  0  0  0  0  0  0
   -2.9566   -2.5106   -2.6920 N   0  0  0  0  0  0  0  0  0  0  0  0
   -2.7697   -1.7676   -3.8492 C   0  0  0  0  0  0  0  0  0  0  0  0
   -2.9011   -3.9985   -6.4915 H   0  0  0  0  0  0  0  0  0  0  0  0
   -3.7928   -4.1565   -4.9674 H   0  0  0  0  0  0  0  0  0  0  0  0
   -2.0197   -4.3007   -4.9832 H   0  0  0  0  0  0  0  0  0  0  0  0
   -2.5032   -1.7804   -7.2508 H   0  0  0  0  0  0  0  0  0  0  0  0
   -2.1879    0.6187   -6.8570 H   0  0  0  0  0  0  0  0  0  0  0  0
   -2.1876    1.5425   -4.5479 H   0  0  0  0  0  0  0  0  0  0  0  0
   -2.2016   -1.6558    0.2752 H   0  0  0  0  0  0  0  0  0  0  0  0
   -3.2276   -4.0885   -2.0071 H   0  0  0  0  0  0  0  0  0  0  0  0
   -2.8020   -6.4105   -1.8607 H   0  0  0  0  0  0  0  0  0  0  0  0
   -0.6960   -7.0573    1.8778 H   0  0  0  0  0  0  0  0  0  0  0  0
   -1.8140   -3.8154    5.8270 H   0  0  0  0  0  0  0  0  0  0  0  0
    0.1455   -5.4080    6.7094 H   0  0  0  0  0  0  0  0  0  0  0  0
   -1.1318   -3.5650    2.7948 H   0  0  0  0  0  0  0  0  0  0  0  0
   -1.9779   -2.3477    2.1174 H   0  0  0  0  0  0  0  0  0  0  0  0
  1  2  1  0  0  0  0
  1 25  1  0  0  0  0
  1 26  1  0  0  0  0
  1 27  1  0  0  0  0
  2  3  1  0  0  0  0
  2 24  2  0  0  0  0
  3  4  2  0  0  0  0
  3 28  1  0  0  0  0
  4  5  1  0  0  0  0
  4 29  1  0  0  0  0
  5  6  2  0  0  0  0
  5 30  1  0  0  0  0
  6  7  1  0  0  0  0
  6 24  1  0  0  0  0
  7  8  1  0  0  0  0
  8  9  1  0  0  0  0
  8 23  2  0  0  0  0
  9 10  1  0  0  0  0
  9 31  1  0  0  0  0
 10 11  1  0  0  0  0
 10 21  2  0  0  0  0
 11 12  2  0  0  0  0
 11 32  1  0  0  0  0
 12 13  1  0  0  0  0
 12 33  1  0  0  0  0
 13 14  2  0  0  0  0
 14 15  1  0  0  0  0
 14 21  1  0  0  0  0
 15 16  1  0  0  0  0
 15 34  1  0  0  0  0
 16 17  2  0  0  0  0
 16 20  1  0  0  0  0
 17 18  1  0  0  0  0
 18 19  2  0  0  0  0
 18 35  1  0  0  0  0
 19 20  1  0  0  0  0
 19 36  1  0  0  0  0
 21 22  1  0  0  0  0
 22 37  1  0  0  0  0
 22 38  1  0  0  0  0
 23 24  1  0  0  0  0
M  CHG  1  11   1
M  END
$$$$
