
 OpenBabel01112423153D

 49 52  0  0  1  0  0  0  0  0999 V2000
    5.9411   -2.7156   -9.0201 C   0  0  0  0  0  0  0  0  0  0  0  0
    7.3589   -1.8558   -8.2833 S   0  0  0  0  0  0  0  0  0  0  0  0
    6.5286   -0.5045   -7.4675 C   0  0  0  0  0  0  0  0  0  0  0  0
    5.5542   -0.7347   -6.4974 C   0  0  0  0  0  0  0  0  0  0  0  0
    4.9623    0.3374   -5.8267 C   0  0  0  0  0  0  0  0  0  0  0  0
    5.3401    1.6679   -6.0992 C   0  0  0  0  0  0  0  0  0  0  0  0
    4.6775    2.7913   -5.2965 C   0  0  1  0  0  0  0  0  0  0  0  0
    5.5447    4.0112   -4.9529 C   0  0  0  0  0  0  0  0  0  0  0  0
    6.9134    3.8084   -4.3436 C   0  0  0  0  0  0  0  0  0  0  0  0
    7.7483    4.7060   -4.4175 O   0  0  0  0  0  0  0  0  0  0  0  0
    7.1764    2.5675   -3.7927 N   0  0  0  0  0  0  0  0  0  0  0  0
    8.3129    2.2121   -3.0132 C   0  0  0  0  0  0  0  0  0  0  0  0
    9.1257    3.1825   -2.4126 C   0  0  0  0  0  0  0  0  0  0  0  0
   10.1853    2.8222   -1.5767 C   0  0  0  0  0  0  0  0  0  0  0  0
   10.4450    1.4829   -1.3201 C   0  0  0  0  0  0  0  0  0  0  0  0
    9.6612    0.5018   -1.9232 C   0  0  0  0  0  0  0  0  0  0  0  0
    8.5985    0.8482   -2.7795 C   0  0  0  0  0  0  0  0  0  0  0  0
    7.8599   -0.2682   -3.4668 C   0  0  0  0  0  0  0  0  0  0  0  0
    5.0530    5.2677   -5.1711 C   0  0  0  0  0  0  0  0  0  0  0  0
    5.7035    6.5828   -4.7727 C   0  0  0  0  0  0  0  0  0  0  0  0
    3.8075    5.4476   -5.7643 N   0  0  0  0  0  0  0  0  0  0  0  0
    3.0012    4.4476   -6.1307 C   0  0  0  0  0  0  0  0  0  0  0  0
    1.7986    4.4602   -6.6482 N   0  0  0  0  0  0  0  0  0  0  0  0
    1.4827    3.1283   -6.7049 C   0  0  0  0  0  0  0  0  0  0  0  0
    2.4145    2.2893   -6.2301 N   0  0  0  0  0  0  0  0  0  0  0  0
    3.4027    3.1610   -5.9314 N   0  0  0  0  0  0  0  0  0  0  0  0
    6.3048    1.8925   -7.0909 C   0  0  0  0  0  0  0  0  0  0  0  0
    6.9010    0.8131   -7.7550 C   0  0  0  0  0  0  0  0  0  0  0  0
    6.2989   -3.6110   -9.5363 H   0  0  0  0  0  0  0  0  0  0  0  0
    5.4443   -2.0700   -9.7490 H   0  0  0  0  0  0  0  0  0  0  0  0
    5.2210   -3.0285   -8.2597 H   0  0  0  0  0  0  0  0  0  0  0  0
    5.2522   -1.7462   -6.2398 H   0  0  0  0  0  0  0  0  0  0  0  0
    4.1909    0.1245   -5.0880 H   0  0  0  0  0  0  0  0  0  0  0  0
    4.3670    2.3719   -4.3268 H   0  0  0  0  0  0  0  0  0  0  0  0
    6.5640    1.7959   -3.9988 H   0  0  0  0  0  0  0  0  0  0  0  0
    8.9467    4.2440   -2.5554 H   0  0  0  0  0  0  0  0  0  0  0  0
   10.7987    3.5950   -1.1209 H   0  0  0  0  0  0  0  0  0  0  0  0
   11.2619    1.2015   -0.6614 H   0  0  0  0  0  0  0  0  0  0  0  0
    9.8939   -0.5430   -1.7281 H   0  0  0  0  0  0  0  0  0  0  0  0
    8.2352   -1.2517   -3.1584 H   0  0  0  0  0  0  0  0  0  0  0  0
    8.0021   -0.1951   -4.5488 H   0  0  0  0  0  0  0  0  0  0  0  0
    6.7931   -0.2402   -3.2252 H   0  0  0  0  0  0  0  0  0  0  0  0
    6.4897    6.5020   -4.0248 H   0  0  0  0  0  0  0  0  0  0  0  0
    4.9503    7.2408   -4.3211 H   0  0  0  0  0  0  0  0  0  0  0  0
    6.0975    7.0869   -5.6592 H   0  0  0  0  0  0  0  0  0  0  0  0
    3.4791    6.4031   -5.8801 H   0  0  0  0  0  0  0  0  0  0  0  0
    0.5403    2.7601   -7.0909 H   0  0  0  0  0  0  0  0  0  0  0  0
    6.6211    2.9017   -7.3516 H   0  0  0  0  0  0  0  0  0  0  0  0
    7.6681    1.0103   -8.5030 H   0  0  0  0  0  0  0  0  0  0  0  0
  1  2  1  0  0  0  0
  1 29  1  0  0  0  0
  1 30  1  0  0  0  0
  1 31  1  0  0  0  0
  2  3  1  0  0  0  0
  3  4  1  0  0  0  0
  3 28  2  0  0  0  0
  4  5  2  0  0  0  0
  4 32  1  0  0  0  0
  5  6  1  0  0  0  0
  5 33  1  0  0  0  0
  6 27  2  0  0  0  0
  7  8  1  0  0  0  0
  7 26  1  0  0  0  0
  7  6  1  0  0  0  0
  7 34  1  1  0  0  0
  8  9  1  0  0  0  0
  8 19  2  0  0  0  0
  9 10  2  0  0  0  0
  9 11  1  0  0  0  0
 11 12  1  0  0  0  0
 11 35  1  0  0  0  0
 12 13  1  0  0  0  0
 12 17  2  0  0  0  0
 13 14  2  0  0  0  0
 13 36  1  0  0  0  0
 14 15  1  0  0  0  0
 14 37  1  0  0  0  0
 15 16  2  0  0  0  0
 15 38  1  0  0  0  0
 16 17  1  0  0  0  0
 16 39  1  0  0  0  0
 17 18  1  0  0  0  0
 18 40  1  0  0  0  0
 18 41  1  0  0  0  0
 18 42  1  0  0  0  0
 19 20  1  0  0  0  0
 19 21  1  0  0  0  0
 20 43  1  0  0  0  0
 20 44  1  0  0  0  0
 20 45  1  0  0  0  0
 21 22  1  0  0  0  0
 21 46  1  0  0  0  0
 22 23  2  0  0  0  0
 22 26  1  0  0  0  0
 23 24  1  0  0  0  0
 24 25  2  0  0  0  0
 24 47  1  0  0  0  0
 25 26  1  0  0  0  0
 27 28  1  0  0  0  0
 27 48  1  0  0  0  0
 28 49  1  0  0  0  0
M  END
$$$$
