
 OpenBabel01112423073D

 47 49  0  0  0  0  0  0  0  0999 V2000
    5.5267   -7.9333   -3.8894 C   0  0  0  0  0  0  0  0  0  0  0  0
    6.0191   -8.0616   -2.5614 O   0  0  0  0  0  0  0  0  0  0  0  0
    5.4815   -7.2485   -1.6050 C   0  0  0  0  0  0  0  0  0  0  0  0
    4.4840   -6.2995   -1.8137 C   0  0  0  0  0  0  0  0  0  0  0  0
    3.9656   -5.5602   -0.7433 C   0  0  0  0  0  0  0  0  0  0  0  0
    2.8690   -4.7009   -0.9234 N   0  0  0  0  0  0  0  0  0  0  0  0
    1.8530   -4.7198   -1.8890 C   0  0  0  0  0  0  0  0  0  0  0  0
    1.3051   -3.5364   -2.2573 N   0  3  0  0  0  0  0  0  0  0  0  0
    1.3726   -5.9032   -2.4005 N   0  0  0  0  0  0  0  0  0  0  0  0
    0.2954   -6.0258   -3.3101 C   0  0  0  0  0  0  0  0  0  0  0  0
   -0.1854   -4.9318   -3.7893 N   0  0  0  0  0  0  0  0  0  0  0  0
   -1.2559   -5.0037   -4.6477 C   0  0  0  0  0  0  0  0  0  0  0  0
   -1.6965   -3.9979   -5.1858 O   0  0  0  0  0  0  0  0  0  0  0  0
   -1.9043   -6.3305   -4.8593 C   0  0  0  0  0  0  0  0  0  0  0  0
   -1.3269   -7.4206   -4.3167 C   0  0  0  0  0  0  0  0  0  0  0  0
   -0.1728   -7.2740   -3.5676 N   0  0  0  0  0  0  0  0  0  0  0  0
   -1.9517   -8.7898   -4.4611 C   0  0  0  0  0  0  0  0  0  0  0  0
   -3.4067   -8.7395   -4.9475 C   0  0  0  0  0  0  0  0  0  0  0  0
   -3.5667   -7.7602   -6.1059 C   0  0  0  0  0  0  0  0  0  0  0  0
   -3.1625   -6.3490   -5.6805 C   0  0  0  0  0  0  0  0  0  0  0  0
    4.5004   -5.7429    0.5419 C   0  0  0  0  0  0  0  0  0  0  0  0
    5.5141   -6.6774    0.7578 C   0  0  0  0  0  0  0  0  0  0  0  0
    6.1014   -6.9733    1.9549 O   0  0  0  0  0  0  0  0  0  0  0  0
    5.7207   -6.2109    3.0929 C   0  0  0  0  0  0  0  0  0  0  0  0
    5.9871   -7.4314   -0.3183 C   0  0  0  0  0  0  0  0  0  0  0  0
    5.9255   -8.7633   -4.4792 H   0  0  0  0  0  0  0  0  0  0  0  0
    5.8718   -6.9958   -4.3370 H   0  0  0  0  0  0  0  0  0  0  0  0
    4.4340   -8.0056   -3.9257 H   0  0  0  0  0  0  0  0  0  0  0  0
    4.1305   -6.0950   -2.8180 H   0  0  0  0  0  0  0  0  0  0  0  0
    2.9306   -3.8473   -0.3791 H   0  0  0  0  0  0  0  0  0  0  0  0
    1.6558   -2.6400   -1.9511 H   0  0  0  0  0  0  0  0  0  0  0  0
    0.5621   -3.5368   -2.9649 H   0  0  0  0  0  0  0  0  0  0  0  0
    1.7953   -6.7408   -2.0223 H   0  0  0  0  0  0  0  0  0  0  0  0
    0.2004   -8.1113   -3.1356 H   0  0  0  0  0  0  0  0  0  0  0  0
   -1.9262   -9.3166   -3.4999 H   0  0  0  0  0  0  0  0  0  0  0  0
   -1.3526   -9.3759   -5.1684 H   0  0  0  0  0  0  0  0  0  0  0  0
   -4.0604   -8.4312   -4.1209 H   0  0  0  0  0  0  0  0  0  0  0  0
   -3.7317   -9.7398   -5.2538 H   0  0  0  0  0  0  0  0  0  0  0  0
   -4.6038   -7.7546   -6.4604 H   0  0  0  0  0  0  0  0  0  0  0  0
   -2.9425   -8.0834   -6.9487 H   0  0  0  0  0  0  0  0  0  0  0  0
   -3.9702   -5.9063   -5.0830 H   0  0  0  0  0  0  0  0  0  0  0  0
   -3.0512   -5.7312   -6.5797 H   0  0  0  0  0  0  0  0  0  0  0  0
    4.0999   -5.1672    1.3706 H   0  0  0  0  0  0  0  0  0  0  0  0
    6.2656   -6.6059    3.9562 H   0  0  0  0  0  0  0  0  0  0  0  0
    4.6512   -6.3147    3.3016 H   0  0  0  0  0  0  0  0  0  0  0  0
    5.9998   -5.1594    2.9709 H   0  0  0  0  0  0  0  0  0  0  0  0
    6.7652   -8.1740   -0.1480 H   0  0  0  0  0  0  0  0  0  0  0  0
  1  2  1  0  0  0  0
  1 26  1  0  0  0  0
  1 27  1  0  0  0  0
  1 28  1  0  0  0  0
  2  3  1  0  0  0  0
  3  4  1  0  0  0  0
  3 25  2  0  0  0  0
  4  5  2  0  0  0  0
  4 29  1  0  0  0  0
  5  6  1  0  0  0  0
  5 21  1  0  0  0  0
  6  7  1  0  0  0  0
  6 30  1  0  0  0  0
  7  8  2  0  0  0  0
  7  9  1  0  0  0  0
  8 31  1  0  0  0  0
  8 32  1  0  0  0  0
  9 10  1  0  0  0  0
  9 33  1  0  0  0  0
 10 11  2  0  0  0  0
 10 16  1  0  0  0  0
 11 12  1  0  0  0  0
 12 13  2  0  0  0  0
 12 14  1  0  0  0  0
 14 15  2  0  0  0  0
 14 20  1  0  0  0  0
 15 16  1  0  0  0  0
 15 17  1  0  0  0  0
 16 34  1  0  0  0  0
 17 18  1  0  0  0  0
 17 35  1  0  0  0  0
 17 36  1  0  0  0  0
 18 19  1  0  0  0  0
 18 37  1  0  0  0  0
 18 38  1  0  0  0  0
 19 20  1  0  0  0  0
 19 39  1  0  0  0  0
 19 40  1  0  0  0  0
 20 41  1  0  0  0  0
 20 42  1  0  0  0  0
 21 22  2  0  0  0  0
 21 43  1  0  0  0  0
 22 23  1  0  0  0  0
 22 25  1  0  0  0  0
 23 24  1  0  0  0  0
 24 44  1  0  0  0  0
 24 45  1  0  0  0  0
 24 46  1  0  0  0  0
 25 47  1  0  0  0  0
M  CHG  1   8   1
M  END
$$$$
