
 OpenBabel01112423163D

 52 57  0  0  1  0  0  0  0  0999 V2000
    7.3276   -0.7713   -7.0012 C   0  0  0  0  0  0  0  0  0  0  0  0
    5.8326    0.0704   -7.5738 S   0  0  0  0  0  0  0  0  0  0  0  0
    5.5635    1.3515   -6.3639 C   0  0  0  0  0  0  0  0  0  0  0  0
    6.2712    1.5542   -5.1795 C   0  0  0  0  0  0  0  0  0  0  0  0
    5.8842    2.5560   -4.2614 C   0  0  0  0  0  0  0  0  0  0  0  0
    4.8077    3.4194   -4.5250 C   0  0  0  0  0  0  0  0  0  0  0  0
    4.3958    4.5371   -3.5274 C   0  0  1  0  0  0  0  0  0  0  0  0
    5.5114    5.1114   -2.7927 O   0  0  0  0  0  0  0  0  0  0  0  0
    6.4206    5.6927   -3.6581 C   0  0  0  0  0  0  0  0  0  0  0  0
    7.7449    5.6248   -3.2549 C   0  0  0  0  0  0  0  0  0  0  0  0
    8.7189    5.5918   -4.2413 C   0  0  0  0  0  0  0  0  0  0  0  0
    8.3497    5.6763   -5.5903 C   0  0  0  0  0  0  0  0  0  0  0  0
    7.0274    5.9650   -5.9605 C   0  0  0  0  0  0  0  0  0  0  0  0
    6.0575    6.0447   -4.9696 C   0  0  0  0  0  0  0  0  0  0  0  0
    4.5918    6.2566   -5.2368 C   0  0  0  0  0  0  0  0  0  0  0  0
    4.1748    6.8212   -6.3257 N   0  0  0  0  0  0  0  0  0  0  0  0
    2.8028    6.9449   -6.4393 C   0  0  0  0  0  0  0  0  0  0  0  0
    2.1247    7.5504   -7.3976 N   0  3  0  0  0  0  0  0  0  0  0  0
    0.8039    7.4802   -7.0533 C   0  0  0  0  0  0  0  0  0  0  0  0
    0.6128    6.8435   -5.9495 N   0  0  0  0  0  0  0  0  0  0  0  0
    1.8880    6.4560   -5.5974 N   0  0  0  0  0  0  0  0  0  0  0  0
    2.1681    5.7465   -4.3657 C   0  0  1  0  0  0  0  0  0  0  0  0
    1.4202    4.4090   -4.3163 C   0  0  0  0  0  0  0  0  0  0  0  0
    1.0716    3.6897   -5.4702 C   0  0  0  0  0  0  0  0  0  0  0  0
    0.4970    2.4231   -5.3802 C   0  0  0  0  0  0  0  0  0  0  0  0
    0.2028    1.9047   -4.1313 C   0  0  0  0  0  0  0  0  0  0  0  0
    0.4601    2.6344   -3.0335 N   0  3  0  0  0  0  0  0  0  0  0  0
    1.0461    3.8465   -3.0855 C   0  0  0  0  0  0  0  0  0  0  0  0
    3.6864    5.7827   -4.0922 C   0  0  1  0  0  0  0  0  0  0  0  0
    4.1892    3.2608   -5.7720 C   0  0  0  0  0  0  0  0  0  0  0  0
    4.5270    2.2319   -6.6544 C   0  0  0  0  0  0  0  0  0  0  0  0
    7.5596   -1.5796   -7.7009 H   0  0  0  0  0  0  0  0  0  0  0  0
    7.1731   -1.2095   -6.0124 H   0  0  0  0  0  0  0  0  0  0  0  0
    8.1722   -0.0789   -6.9822 H   0  0  0  0  0  0  0  0  0  0  0  0
    7.1416    0.9479   -4.9395 H   0  0  0  0  0  0  0  0  0  0  0  0
    6.4877    2.6794   -3.3616 H   0  0  0  0  0  0  0  0  0  0  0  0
    3.7764    4.0619   -2.7613 H   0  0  0  0  0  0  0  0  0  0  0  0
    8.0059    5.4675   -2.2111 H   0  0  0  0  0  0  0  0  0  0  0  0
    9.7567    5.4146   -3.9636 H   0  0  0  0  0  0  0  0  0  0  0  0
    9.1044    5.4964   -6.3538 H   0  0  0  0  0  0  0  0  0  0  0  0
    6.7685    6.0237   -7.0129 H   0  0  0  0  0  0  0  0  0  0  0  0
    2.5397    8.0191   -8.1991 H   0  0  0  0  0  0  0  0  0  0  0  0
    0.0572    7.9395   -7.6851 H   0  0  0  0  0  0  0  0  0  0  0  0
    1.6956    6.3588   -3.5829 H   0  0  0  0  0  0  0  0  0  0  0  0
    1.2758    4.0785   -6.4685 H   0  0  0  0  0  0  0  0  0  0  0  0
    0.2917    1.8452   -6.2807 H   0  0  0  0  0  0  0  0  0  0  0  0
   -0.2384    0.9236   -3.9840 H   0  0  0  0  0  0  0  0  0  0  0  0
    0.2014    2.2386   -2.1247 H   0  0  0  0  0  0  0  0  0  0  0  0
    1.2087    4.3266   -2.1242 H   0  0  0  0  0  0  0  0  0  0  0  0
    3.7875    6.5942   -3.3495 H   0  0  0  0  0  0  0  0  0  0  0  0
    3.4579    3.9561   -6.1478 H   0  0  0  0  0  0  0  0  0  0  0  0
    3.9774    2.1355   -7.5913 H   0  0  0  0  0  0  0  0  0  0  0  0
  1  2  1  0  0  0  0
  1 32  1  0  0  0  0
  1 33  1  0  0  0  0
  1 34  1  0  0  0  0
  2  3  1  0  0  0  0
  3  4  1  0  0  0  0
  3 31  2  0  0  0  0
  4  5  2  0  0  0  0
  4 35  1  0  0  0  0
  5  6  1  0  0  0  0
  5 36  1  0  0  0  0
  6 30  2  0  0  0  0
  7  8  1  0  0  0  0
  7 29  1  0  0  0  0
  7  6  1  0  0  0  0
  7 37  1  1  0  0  0
  8  9  1  0  0  0  0
  9 10  1  0  0  0  0
  9 14  2  0  0  0  0
 10 11  2  0  0  0  0
 10 38  1  0  0  0  0
 11 12  1  0  0  0  0
 11 39  1  0  0  0  0
 12 13  2  0  0  0  0
 12 40  1  0  0  0  0
 13 14  1  0  0  0  0
 13 41  1  0  0  0  0
 14 15  1  0  0  0  0
 15 16  2  0  0  0  0
 15 29  1  0  0  0  0
 16 17  1  0  0  0  0
 17 18  2  0  0  0  0
 17 21  1  0  0  0  0
 18 19  1  0  0  0  0
 18 42  1  0  0  0  0
 19 20  2  0  0  0  0
 19 43  1  0  0  0  0
 20 21  1  0  0  0  0
 21 22  1  0  0  0  0
 22 29  1  0  0  0  0
 22 23  1  0  0  0  0
 22 44  1  1  0  0  0
 23 24  1  0  0  0  0
 23 28  2  0  0  0  0
 24 25  2  0  0  0  0
 24 45  1  0  0  0  0
 25 26  1  0  0  0  0
 25 46  1  0  0  0  0
 26 27  2  0  0  0  0
 26 47  1  0  0  0  0
 27 28  1  0  0  0  0
 27 48  1  0  0  0  0
 28 49  1  0  0  0  0
 29 50  1  1  0  0  0
 30 31  1  0  0  0  0
 30 51  1  0  0  0  0
 31 52  1  0  0  0  0
M  CHG  2  18   1  27   1
M  END
$$$$
