
 OpenBabel01112423073D

 52 55  0  0  0  0  0  0  0  0999 V2000
    2.1473   -0.4692    1.4143 O   0  0  0  0  0  0  0  0  0  0  0  0
    1.4836    0.1035    2.5312 C   0  0  0  0  0  0  0  0  0  0  0  0
    1.3787   -0.9298    3.6455 C   0  0  0  0  0  0  0  0  0  0  0  0
    2.7384   -1.4834    4.0777 C   0  0  0  0  0  0  0  0  0  0  0  0
    3.6240   -0.4214    4.6325 C   0  0  0  0  0  0  0  0  0  0  0  0
    3.3661    0.3671    5.6559 N   0  0  0  0  0  0  0  0  0  0  0  0
    4.4709    1.1671    5.7892 C   0  0  0  0  0  0  0  0  0  0  0  0
    4.7246    2.1879    6.7150 C   0  0  0  0  0  0  0  0  0  0  0  0
    5.9607    2.8597    6.6779 C   0  0  0  0  0  0  0  0  0  0  0  0
    6.2504    3.9521    7.6832 C   0  0  0  0  0  0  0  0  0  0  0  0
    6.8555    3.4040    8.9624 C   0  0  0  0  0  0  0  0  0  0  0  0
    8.2667    3.3276    9.0908 C   0  0  0  0  0  0  0  0  0  0  0  0
    8.8852    2.7000   10.1812 C   0  0  0  0  0  0  0  0  0  0  0  0
    8.0253    2.1574   11.1216 C   0  0  0  0  0  0  0  0  0  0  0  0
    8.2686    1.4324   12.2685 N   0  3  0  0  0  0  0  0  0  0  0  0
    7.1255    1.1195   12.8875 C   0  0  0  0  0  0  0  0  0  0  0  0
    6.9930    0.3672   14.1686 C   0  0  0  0  0  0  0  0  0  0  0  0
    7.7017    1.0303   15.3445 C   0  0  0  0  0  0  0  0  0  0  0  0
    7.4914    0.2506   16.6297 C   0  0  0  0  0  0  0  0  0  0  0  0
    6.0997    0.1788   16.8933 O   0  0  0  0  0  0  0  0  0  0  0  0
    6.1338    1.6256   12.1443 N   0  0  0  0  0  0  0  0  0  0  0  0
    6.6370    2.2616   11.0273 C   0  0  0  0  0  0  0  0  0  0  0  0
    6.0049    2.8866    9.9637 C   0  0  0  0  0  0  0  0  0  0  0  0
    6.9256    2.4824    5.7274 C   0  0  0  0  0  0  0  0  0  0  0  0
    6.6762    1.4835    4.7747 C   0  0  0  0  0  0  0  0  0  0  0  0
    5.4329    0.8544    4.8383 C   0  0  0  0  0  0  0  0  0  0  0  0
    4.8493   -0.1297    4.0827 N   0  0  0  0  0  0  0  0  0  0  0  0
    2.0738    0.1740    0.6853 H   0  0  0  0  0  0  0  0  0  0  0  0
    0.4829    0.4230    2.2238 H   0  0  0  0  0  0  0  0  0  0  0  0
    2.0426    0.9889    2.8525 H   0  0  0  0  0  0  0  0  0  0  0  0
    0.7711   -1.7714    3.2959 H   0  0  0  0  0  0  0  0  0  0  0  0
    0.8580   -0.4872    4.5057 H   0  0  0  0  0  0  0  0  0  0  0  0
    3.2243   -1.9902    3.2351 H   0  0  0  0  0  0  0  0  0  0  0  0
    2.5861   -2.2447    4.8508 H   0  0  0  0  0  0  0  0  0  0  0  0
    3.9569    2.4371    7.4389 H   0  0  0  0  0  0  0  0  0  0  0  0
    5.3267    4.4992    7.9145 H   0  0  0  0  0  0  0  0  0  0  0  0
    6.9203    4.6999    7.2394 H   0  0  0  0  0  0  0  0  0  0  0  0
    8.8981    3.7496    8.3055 H   0  0  0  0  0  0  0  0  0  0  0  0
    9.9617    2.6220   10.2709 H   0  0  0  0  0  0  0  0  0  0  0  0
    9.1927    1.1572   12.5928 H   0  0  0  0  0  0  0  0  0  0  0  0
    7.4012   -0.6279   13.9641 H   0  0  0  0  0  0  0  0  0  0  0  0
    5.9162    0.2748   14.3400 H   0  0  0  0  0  0  0  0  0  0  0  0
    7.3058    2.0466   15.4612 H   0  0  0  0  0  0  0  0  0  0  0  0
    8.7730    1.1241   15.1340 H   0  0  0  0  0  0  0  0  0  0  0  0
    7.9970    0.7314   17.4731 H   0  0  0  0  0  0  0  0  0  0  0  0
    7.8792   -0.7683   16.5337 H   0  0  0  0  0  0  0  0  0  0  0  0
    5.8325    1.0113   17.3234 H   0  0  0  0  0  0  0  0  0  0  0  0
    5.1463    1.5339   12.3632 H   0  0  0  0  0  0  0  0  0  0  0  0
    4.9238    2.9357    9.8997 H   0  0  0  0  0  0  0  0  0  0  0  0
    7.8950    2.9782    5.7088 H   0  0  0  0  0  0  0  0  0  0  0  0
    7.4179    1.2143    4.0298 H   0  0  0  0  0  0  0  0  0  0  0  0
    5.2441   -0.5706    3.2635 H   0  0  0  0  0  0  0  0  0  0  0  0
  1  2  1  0  0  0  0
  1 28  1  0  0  0  0
  2  3  1  0  0  0  0
  2 29  1  0  0  0  0
  2 30  1  0  0  0  0
  3  4  1  0  0  0  0
  3 31  1  0  0  0  0
  3 32  1  0  0  0  0
  4  5  1  0  0  0  0
  4 33  1  0  0  0  0
  4 34  1  0  0  0  0
  5  6  2  0  0  0  0
  5 27  1  0  0  0  0
  6  7  1  0  0  0  0
  7  8  1  0  0  0  0
  7 26  2  0  0  0  0
  8  9  2  0  0  0  0
  8 35  1  0  0  0  0
  9 10  1  0  0  0  0
  9 24  1  0  0  0  0
 10 11  1  0  0  0  0
 10 36  1  0  0  0  0
 10 37  1  0  0  0  0
 11 12  1  0  0  0  0
 11 23  2  0  0  0  0
 12 13  2  0  0  0  0
 12 38  1  0  0  0  0
 13 14  1  0  0  0  0
 13 39  1  0  0  0  0
 14 15  1  0  0  0  0
 14 22  2  0  0  0  0
 15 16  2  0  0  0  0
 15 40  1  0  0  0  0
 16 17  1  0  0  0  0
 16 21  1  0  0  0  0
 17 18  1  0  0  0  0
 17 41  1  0  0  0  0
 17 42  1  0  0  0  0
 18 19  1  0  0  0  0
 18 43  1  0  0  0  0
 18 44  1  0  0  0  0
 19 20  1  0  0  0  0
 19 45  1  0  0  0  0
 19 46  1  0  0  0  0
 20 47  1  0  0  0  0
 21 22  1  0  0  0  0
 21 48  1  0  0  0  0
 22 23  1  0  0  0  0
 23 49  1  0  0  0  0
 24 25  2  0  0  0  0
 24 50  1  0  0  0  0
 25 26  1  0  0  0  0
 25 51  1  0  0  0  0
 26 27  1  0  0  0  0
 27 52  1  0  0  0  0
M  CHG  1  15   1
M  END
$$$$
