
 OpenBabel01112423163D

 46 49  0  0  1  0  0  0  0  0999 V2000
    4.2034   -1.1482   -6.0815 C   0  0  0  0  0  0  0  0  0  0  0  0
    4.9049    0.0338   -5.6823 O   0  0  0  0  0  0  0  0  0  0  0  0
    4.0923    0.9792   -5.1776 C   0  0  0  0  0  0  0  0  0  0  0  0
    2.8609    0.8844   -5.1355 O   0  0  0  0  0  0  0  0  0  0  0  0
    4.7658    2.1278   -4.5526 C   0  0  0  0  0  0  0  0  0  0  0  0
    6.1328    2.4834   -4.5478 C   0  0  0  0  0  0  0  0  0  0  0  0
    7.1772    1.6318   -4.9078 N   0  0  0  0  0  0  0  0  0  0  0  0
    6.5155    3.6314   -3.7617 N   0  0  0  0  0  0  0  0  0  0  0  0
    7.6828    4.3861   -3.8785 C   0  0  0  0  0  0  0  0  0  0  0  0
    8.7437    3.9650   -4.3486 O   0  0  0  0  0  0  0  0  0  0  0  0
    7.5352    5.8333   -3.5202 C   0  0  0  0  0  0  0  0  0  0  0  0
    8.3862    6.7878   -4.0946 C   0  0  0  0  0  0  0  0  0  0  0  0
    8.0797    8.1502   -4.0141 C   0  0  0  0  0  0  0  0  0  0  0  0
    6.9235    8.5677   -3.3600 C   0  0  0  0  0  0  0  0  0  0  0  0
    6.1290    7.6338   -2.7041 C   0  0  0  0  0  0  0  0  0  0  0  0
    6.4521    6.2683   -2.7506 C   0  0  0  0  0  0  0  0  0  0  0  0
    5.5412    5.1453   -1.7406 S   0  0  0  0  0  0  0  0  0  0  0  0
    5.8725    3.6350   -2.5182 C   0  0  0  0  0  0  0  0  0  0  0  0
    4.9789    2.6686   -2.3500 C   0  0  0  0  0  0  0  0  0  0  0  0
    5.3461    1.1959   -2.2672 C   0  0  0  0  0  0  0  0  0  0  0  0
    5.6507   -0.0258   -2.1985 N   0  0  0  0  0  0  0  0  0  0  0  0
    3.8906    2.7630   -3.3977 C   0  0  2  0  0  0  0  0  0  0  0  0
    2.6807    2.3514   -2.4501 C   0  0  0  0  0  0  0  0  0  0  0  0
    2.1866    3.3951   -1.6124 C   0  0  0  0  0  0  0  0  0  0  0  0
    1.5771    3.1537   -0.3591 C   0  0  0  0  0  0  0  0  0  0  0  0
    1.4092    1.8526    0.1124 C   0  0  0  0  0  0  0  0  0  0  0  0
    0.8934    1.5843    1.5076 C   0  0  0  0  0  0  0  0  0  0  0  0
    1.7791    0.8082   -0.7422 C   0  0  0  0  0  0  0  0  0  0  0  0
    2.3961    1.0466   -2.0018 C   0  0  0  0  0  0  0  0  0  0  0  0
    4.8516   -1.7431   -6.7235 H   0  0  0  0  0  0  0  0  0  0  0  0
    3.2904   -0.9107   -6.6441 H   0  0  0  0  0  0  0  0  0  0  0  0
    3.9557   -1.7412   -5.1949 H   0  0  0  0  0  0  0  0  0  0  0  0
    8.0687    2.0616   -4.6227 H   0  0  0  0  0  0  0  0  0  0  0  0
    7.1089    0.7725   -4.3644 H   0  0  0  0  0  0  0  0  0  0  0  0
    9.2759    6.4688   -4.6402 H   0  0  0  0  0  0  0  0  0  0  0  0
    8.7265    8.8846   -4.4883 H   0  0  0  0  0  0  0  0  0  0  0  0
    6.6535    9.6237   -3.3392 H   0  0  0  0  0  0  0  0  0  0  0  0
    5.2501    7.9770   -2.1595 H   0  0  0  0  0  0  0  0  0  0  0  0
    3.6525    3.7803   -3.7430 H   0  0  0  0  0  0  0  0  0  0  0  0
    2.3921    4.4385   -1.8542 H   0  0  0  0  0  0  0  0  0  0  0  0
    1.3098    3.9956    0.2776 H   0  0  0  0  0  0  0  0  0  0  0  0
    0.7356    2.5106    2.0712 H   0  0  0  0  0  0  0  0  0  0  0  0
    1.6118    0.9871    2.0794 H   0  0  0  0  0  0  0  0  0  0  0  0
   -0.0643    1.0482    1.4794 H   0  0  0  0  0  0  0  0  0  0  0  0
    1.6716   -0.2230   -0.3937 H   0  0  0  0  0  0  0  0  0  0  0  0
    2.7544    0.1737   -2.5443 H   0  0  0  0  0  0  0  0  0  0  0  0
  1  2  1  0  0  0  0
  1 30  1  0  0  0  0
  1 31  1  0  0  0  0
  1 32  1  0  0  0  0
  2  3  1  0  0  0  0
  3  4  2  0  0  0  0
  3  5  1  0  0  0  0
  5  6  2  0  0  0  0
  5 22  1  0  0  0  0
  6  7  1  0  0  0  0
  6  8  1  0  0  0  0
  7 33  1  0  0  0  0
  7 34  1  0  0  0  0
  8  9  1  0  0  0  0
  8 18  1  0  0  0  0
  9 10  2  0  0  0  0
  9 11  1  0  0  0  0
 11 12  1  0  0  0  0
 11 16  2  0  0  0  0
 12 13  2  0  0  0  0
 12 35  1  0  0  0  0
 13 14  1  0  0  0  0
 13 36  1  0  0  0  0
 14 15  2  0  0  0  0
 14 37  1  0  0  0  0
 15 16  1  0  0  0  0
 15 38  1  0  0  0  0
 16 17  1  0  0  0  0
 17 18  1  0  0  0  0
 18 19  2  3  0  0  0
 19 20  1  0  0  0  0
 19 22  1  0  0  0  0
 20 21  3  0  0  0  0
 22 23  1  0  0  0  0
 22 39  1  6  0  0  0
 23 24  1  0  0  0  0
 23 29  2  0  0  0  0
 24 25  2  0  0  0  0
 24 40  1  0  0  0  0
 25 26  1  0  0  0  0
 25 41  1  0  0  0  0
 26 27  1  0  0  0  0
 26 28  2  0  0  0  0
 27 42  1  0  0  0  0
 27 43  1  0  0  0  0
 27 44  1  0  0  0  0
 28 29  1  0  0  0  0
 28 45  1  0  0  0  0
 29 46  1  0  0  0  0
M  END
$$$$
