
 OpenBabel01112423073D

 58 59  0  0  1  0  0  0  0  0999 V2000
    2.9118    0.6478   -1.2222 C   0  0  0  0  0  0  0  0  0  0  0  0
    2.4065    0.1231    0.1237 C   0  0  1  0  0  0  0  0  0  0  0  0
    2.8539   -1.3204    0.3253 C   0  0  0  0  0  0  0  0  0  0  0  0
    2.2889   -1.8684    1.6330 C   0  0  2  0  0  0  0  0  0  0  0  0
    0.7596   -1.9583    1.5954 C   0  0  0  0  0  0  0  0  0  0  0  0
    2.8270   -1.0391    2.8014 C   0  0  0  0  0  0  0  0  0  0  0  0
    2.5076    0.4500    2.6656 N   0  3  3  0  0  0  0  0  0  0  0  0
    3.0564    1.3223    3.8744 C   0  0  0  0  0  0  0  0  0  0  0  0
    4.5889    1.1785    3.9665 C   0  0  0  0  0  0  0  0  0  0  0  0
    2.6942    2.8018    3.6196 C   0  0  0  0  0  0  0  0  0  0  0  0
    2.4022    0.8939    5.2431 C   0  0  0  0  0  0  0  0  0  0  0  0
    0.9460    1.0385    5.2939 N   0  0  0  0  0  0  0  0  0  0  0  0
    0.0799    0.0067    5.0534 C   0  0  0  0  0  0  0  0  0  0  0  0
    0.4443   -1.0914    4.6399 O   0  0  0  0  0  0  0  0  0  0  0  0
   -1.2356    0.3326    5.2079 N   0  0  0  0  0  0  0  0  0  0  0  0
   -2.2453   -0.6194    4.9073 N   0  0  0  0  0  0  0  0  0  0  0  0
   -3.4540   -0.0873    4.4485 C   0  0  0  0  0  0  0  0  0  0  0  0
   -3.5774    1.1339    4.3516 O   0  0  0  0  0  0  0  0  0  0  0  0
   -4.4167   -1.0363    4.2230 N   0  0  0  0  0  0  0  0  0  0  0  0
   -5.7508   -0.7792    3.7993 C   0  0  0  0  0  0  0  0  0  0  0  0
   -6.1442    0.4257    3.2093 C   0  0  0  0  0  0  0  0  0  0  0  0
   -7.4721    0.6363    2.8127 C   0  0  0  0  0  0  0  0  0  0  0  0
   -8.4245   -0.3596    3.0002 C   0  0  0  0  0  0  0  0  0  0  0  0
   -8.0473   -1.5690    3.5788 C   0  0  0  0  0  0  0  0  0  0  0  0
   -6.7177   -1.7824    3.9675 C   0  0  0  0  0  0  0  0  0  0  0  0
    2.8863    1.0024    1.2839 C   0  0  0  0  0  0  0  0  0  0  0  0
    2.5704    0.0012   -2.0396 H   0  0  0  0  0  0  0  0  0  0  0  0
    4.0053    0.6855   -1.2589 H   0  0  0  0  0  0  0  0  0  0  0  0
    2.5265    1.6540   -1.4160 H   0  0  0  0  0  0  0  0  0  0  0  0
    1.3124    0.1659    0.0779 H   0  0  0  0  0  0  0  0  0  0  0  0
    3.9521   -1.3680    0.3554 H   0  0  0  0  0  0  0  0  0  0  0  0
    2.5406   -1.9482   -0.5168 H   0  0  0  0  0  0  0  0  0  0  0  0
    2.6649   -2.8925    1.7531 H   0  0  0  0  0  0  0  0  0  0  0  0
    0.2750   -0.9777    1.6065 H   0  0  0  0  0  0  0  0  0  0  0  0
    0.3848   -2.5183    2.4565 H   0  0  0  0  0  0  0  0  0  0  0  0
    0.4278   -2.4827    0.6921 H   0  0  0  0  0  0  0  0  0  0  0  0
    3.9139   -1.1369    2.8456 H   0  0  0  0  0  0  0  0  0  0  0  0
    2.4251   -1.4027    3.7429 H   0  0  0  0  0  0  0  0  0  0  0  0
    1.4815    0.5125    2.7492 H   0  0  0  0  0  0  0  0  0  0  0  0
    5.0893    1.4605    3.0353 H   0  0  0  0  0  0  0  0  0  0  0  0
    4.8925    0.1580    4.2183 H   0  0  0  0  0  0  0  0  0  0  0  0
    4.9993    1.8257    4.7506 H   0  0  0  0  0  0  0  0  0  0  0  0
    3.1815    3.2031    2.7263 H   0  0  0  0  0  0  0  0  0  0  0  0
    3.0223    3.4362    4.4521 H   0  0  0  0  0  0  0  0  0  0  0  0
    1.6128    2.9352    3.5073 H   0  0  0  0  0  0  0  0  0  0  0  0
    2.8067    1.5227    6.0503 H   0  0  0  0  0  0  0  0  0  0  0  0
    2.6755   -0.1351    5.5024 H   0  0  0  0  0  0  0  0  0  0  0  0
    0.5613    1.8844    5.7030 H   0  0  0  0  0  0  0  0  0  0  0  0
   -1.5677    1.1871    5.6459 H   0  0  0  0  0  0  0  0  0  0  0  0
   -1.9210   -1.5079    4.5330 H   0  0  0  0  0  0  0  0  0  0  0  0
   -4.2423   -1.9637    4.5948 H   0  0  0  0  0  0  0  0  0  0  0  0
   -5.4396    1.2311    3.0366 H   0  0  0  0  0  0  0  0  0  0  0  0
   -7.7548    1.5829    2.3583 H   0  0  0  0  0  0  0  0  0  0  0  0
   -9.4545   -0.1925    2.6944 H   0  0  0  0  0  0  0  0  0  0  0  0
   -8.7962   -2.3438    3.7318 H   0  0  0  0  0  0  0  0  0  0  0  0
   -6.4658   -2.7353    4.4248 H   0  0  0  0  0  0  0  0  0  0  0  0
    3.9742    1.1055    1.2597 H   0  0  0  0  0  0  0  0  0  0  0  0
    2.4176    1.9851    1.1869 H   0  0  0  0  0  0  0  0  0  0  0  0
  1 27  1  0  0  0  0
  1 28  1  0  0  0  0
  1 29  1  0  0  0  0
  2  3  1  0  0  0  0
  2 26  1  0  0  0  0
  2  1  1  0  0  0  0
  2 30  1  6  0  0  0
  3  4  1  0  0  0  0
  3 31  1  0  0  0  0
  3 32  1  0  0  0  0
  4  6  1  0  0  0  0
  4  5  1  0  0  0  0
  4 33  1  1  0  0  0
  5 34  1  0  0  0  0
  5 35  1  0  0  0  0
  5 36  1  0  0  0  0
  6  7  1  0  0  0  0
  6 37  1  0  0  0  0
  6 38  1  0  0  0  0
  7  8  1  0  0  0  0
  7 26  1  0  0  0  0
  7 39  1  0  0  0  0
  8  9  1  0  0  0  0
  8 10  1  0  0  0  0
  8 11  1  0  0  0  0
  9 40  1  0  0  0  0
  9 41  1  0  0  0  0
  9 42  1  0  0  0  0
 10 43  1  0  0  0  0
 10 44  1  0  0  0  0
 10 45  1  0  0  0  0
 11 12  1  0  0  0  0
 11 46  1  0  0  0  0
 11 47  1  0  0  0  0
 12 13  1  0  0  0  0
 12 48  1  0  0  0  0
 13 14  2  0  0  0  0
 13 15  1  0  0  0  0
 15 16  1  0  0  0  0
 15 49  1  0  0  0  0
 16 17  1  0  0  0  0
 16 50  1  0  0  0  0
 17 18  2  0  0  0  0
 17 19  1  0  0  0  0
 19 20  1  0  0  0  0
 19 51  1  0  0  0  0
 20 21  1  0  0  0  0
 20 25  2  0  0  0  0
 21 22  2  0  0  0  0
 21 52  1  0  0  0  0
 22 23  1  0  0  0  0
 22 53  1  0  0  0  0
 23 24  2  0  0  0  0
 23 54  1  0  0  0  0
 24 25  1  0  0  0  0
 24 55  1  0  0  0  0
 25 56  1  0  0  0  0
 26 57  1  0  0  0  0
 26 58  1  0  0  0  0
M  CHG  1   7   1
M  END
$$$$
