
 OpenBabel01112423053D

 43 45  0  0  0  0  0  0  0  0999 V2000
   -1.4918    0.6999   -5.4150 C   0  0  0  0  0  0  0  0  0  0  0  0
   -1.7186    0.0278   -4.0929 C   0  0  0  0  0  0  0  0  0  0  0  0
   -1.0930   -1.1781   -3.7940 C   0  0  0  0  0  0  0  0  0  0  0  0
   -1.3031   -1.7866   -2.5593 C   0  0  0  0  0  0  0  0  0  0  0  0
   -2.1797   -1.2263   -1.6128 C   0  0  0  0  0  0  0  0  0  0  0  0
   -2.3471   -1.8601   -0.3475 N   0  0  0  0  0  0  0  0  0  0  0  0
   -2.3745   -3.2595   -0.1819 C   0  0  0  0  0  0  0  0  0  0  0  0
   -2.9122   -3.9993   -1.1598 N   0  3  0  0  0  0  0  0  0  0  0  0
   -2.9480   -5.3192   -1.0692 C   0  0  0  0  0  0  0  0  0  0  0  0
   -2.5351   -6.0131   -0.0026 N   0  0  0  0  0  0  0  0  0  0  0  0
   -2.0419   -5.3040    1.0315 C   0  0  0  0  0  0  0  0  0  0  0  0
   -1.7433   -5.9724    2.2229 N   0  0  0  0  0  0  0  0  0  0  0  0
   -2.0703   -7.4022    2.2636 C   0  0  0  0  0  0  0  0  0  0  0  0
   -2.0832   -7.9835    3.6333 C   0  0  0  0  0  0  0  0  0  0  0  0
   -2.8976   -8.9119    4.2504 C   0  0  0  0  0  0  0  0  0  0  0  0
   -2.4125   -9.0598    5.5711 C   0  0  0  0  0  0  0  0  0  0  0  0
   -1.3242   -8.2198    5.6737 C   0  0  0  0  0  0  0  0  0  0  0  0
   -1.1081   -7.5725    4.4997 O   0  0  0  0  0  0  0  0  0  0  0  0
   -1.9413   -3.8937    0.9988 C   0  0  0  0  0  0  0  0  0  0  0  0
   -1.2368   -3.1795    2.0004 N   0  0  0  0  0  0  0  0  0  0  0  0
   -2.7699    0.0163   -1.8805 C   0  0  0  0  0  0  0  0  0  0  0  0
   -3.6690    0.7377   -0.9081 C   0  0  0  0  0  0  0  0  0  0  0  0
   -2.5467    0.6222   -3.1312 C   0  0  0  0  0  0  0  0  0  0  0  0
   -0.7864    0.1344   -6.0330 H   0  0  0  0  0  0  0  0  0  0  0  0
   -1.0757    1.7010   -5.2649 H   0  0  0  0  0  0  0  0  0  0  0  0
   -2.4348    0.7751   -5.9649 H   0  0  0  0  0  0  0  0  0  0  0  0
   -0.4158   -1.6412   -4.5115 H   0  0  0  0  0  0  0  0  0  0  0  0
   -0.7441   -2.6945   -2.3478 H   0  0  0  0  0  0  0  0  0  0  0  0
   -1.6468   -1.4601    0.2840 H   0  0  0  0  0  0  0  0  0  0  0  0
   -3.2788   -3.5195   -1.9775 H   0  0  0  0  0  0  0  0  0  0  0  0
   -3.3372   -5.8728   -1.9174 H   0  0  0  0  0  0  0  0  0  0  0  0
   -0.7925   -5.8084    2.5450 H   0  0  0  0  0  0  0  0  0  0  0  0
   -1.3613   -7.9643    1.6441 H   0  0  0  0  0  0  0  0  0  0  0  0
   -3.0748   -7.5673    1.8488 H   0  0  0  0  0  0  0  0  0  0  0  0
   -3.7499   -9.4129    3.8056 H   0  0  0  0  0  0  0  0  0  0  0  0
   -2.8021   -9.6923    6.3563 H   0  0  0  0  0  0  0  0  0  0  0  0
   -0.6367   -7.9852    6.4750 H   0  0  0  0  0  0  0  0  0  0  0  0
   -1.1434   -3.7230    2.8621 H   0  0  0  0  0  0  0  0  0  0  0  0
   -1.5989   -2.2541    2.2171 H   0  0  0  0  0  0  0  0  0  0  0  0
   -3.7030    0.2575    0.0731 H   0  0  0  0  0  0  0  0  0  0  0  0
   -4.6905    0.7772   -1.3016 H   0  0  0  0  0  0  0  0  0  0  0  0
   -3.3089    1.7619   -0.7562 H   0  0  0  0  0  0  0  0  0  0  0  0
   -3.0148    1.5819   -3.3550 H   0  0  0  0  0  0  0  0  0  0  0  0
  1  2  1  0  0  0  0
  1 24  1  0  0  0  0
  1 25  1  0  0  0  0
  1 26  1  0  0  0  0
  2  3  1  0  0  0  0
  2 23  2  0  0  0  0
  3  4  2  0  0  0  0
  3 27  1  0  0  0  0
  4  5  1  0  0  0  0
  4 28  1  0  0  0  0
  5  6  1  0  0  0  0
  5 21  2  0  0  0  0
  6  7  1  0  0  0  0
  6 29  1  0  0  0  0
  7  8  1  0  0  0  0
  7 19  2  0  0  0  0
  8  9  2  0  0  0  0
  8 30  1  0  0  0  0
  9 10  1  0  0  0  0
  9 31  1  0  0  0  0
 10 11  2  0  0  0  0
 11 12  1  0  0  0  0
 11 19  1  0  0  0  0
 12 13  1  0  0  0  0
 12 32  1  0  0  0  0
 13 14  1  0  0  0  0
 13 33  1  0  0  0  0
 13 34  1  0  0  0  0
 14 15  2  0  0  0  0
 14 18  1  0  0  0  0
 15 16  1  0  0  0  0
 15 35  1  0  0  0  0
 16 17  2  0  0  0  0
 16 36  1  0  0  0  0
 17 18  1  0  0  0  0
 17 37  1  0  0  0  0
 19 20  1  0  0  0  0
 20 38  1  0  0  0  0
 20 39  1  0  0  0  0
 21 22  1  0  0  0  0
 21 23  1  0  0  0  0
 22 40  1  0  0  0  0
 22 41  1  0  0  0  0
 22 42  1  0  0  0  0
 23 43  1  0  0  0  0
M  CHG  1   8   1
M  END
$$$$
