
 OpenBabel01112423053D

 42 44  0  0  0  0  0  0  0  0999 V2000
    1.9490   -1.9840    0.2165 C   0  0  0  0  0  0  0  0  0  0  0  0
    1.1190   -1.5496   -0.9590 C   0  0  0  0  0  0  0  0  0  0  0  0
    1.7353   -0.8468   -2.0039 C   0  0  0  0  0  0  0  0  0  0  0  0
    0.9889   -0.4005   -3.0888 C   0  0  0  0  0  0  0  0  0  0  0  0
   -0.3712   -0.6537   -3.1119 C   0  0  0  0  0  0  0  0  0  0  0  0
   -0.9325   -1.3150   -2.1011 N   0  3  0  0  0  0  0  0  0  0  0  0
   -0.2672   -1.7668   -1.0224 C   0  0  0  0  0  0  0  0  0  0  0  0
   -0.9782   -2.4921   -0.0581 N   0  0  0  0  0  0  0  0  0  0  0  0
   -2.3931   -2.5942    0.0185 C   0  0  0  0  0  0  0  0  0  0  0  0
   -3.1136   -2.1602   -1.0477 N   0  0  0  0  0  0  0  0  0  0  0  0
   -4.4483   -2.3323   -0.9548 C   0  0  0  0  0  0  0  0  0  0  0  0
   -5.1110   -2.8911    0.0608 N   0  0  0  0  0  0  0  0  0  0  0  0
   -4.3787   -3.3273    1.0962 C   0  0  0  0  0  0  0  0  0  0  0  0
   -5.0055   -3.8785    2.2295 N   0  0  0  0  0  0  0  0  0  0  0  0
   -6.4113   -4.2427    2.0909 C   0  0  0  0  0  0  0  0  0  0  0  0
   -6.8977   -4.6662    3.4599 C   0  0  0  0  0  0  0  0  0  0  0  0
   -7.5857   -3.7601    4.2803 C   0  0  0  0  0  0  0  0  0  0  0  0
   -7.9528   -4.1171    5.5789 C   0  0  0  0  0  0  0  0  0  0  0  0
   -7.6276   -5.3781    6.0747 C   0  0  0  0  0  0  0  0  0  0  0  0
   -6.9472   -6.2893    5.2693 C   0  0  0  0  0  0  0  0  0  0  0  0
   -6.5870   -5.9384    3.9671 C   0  0  0  0  0  0  0  0  0  0  0  0
   -2.9829   -3.1567    1.1579 C   0  0  0  0  0  0  0  0  0  0  0  0
   -2.2445   -3.7371    2.2194 N   0  0  0  0  0  0  0  0  0  0  0  0
    3.0198   -1.9156   -0.0060 H   0  0  0  0  0  0  0  0  0  0  0  0
    1.7397   -3.0246    0.4815 H   0  0  0  0  0  0  0  0  0  0  0  0
    1.7429   -1.3390    1.0770 H   0  0  0  0  0  0  0  0  0  0  0  0
    2.8075   -0.6480   -1.9818 H   0  0  0  0  0  0  0  0  0  0  0  0
    1.4664    0.1371   -3.9043 H   0  0  0  0  0  0  0  0  0  0  0  0
   -1.0266   -0.3376   -3.9161 H   0  0  0  0  0  0  0  0  0  0  0  0
   -1.9417   -1.5177   -2.0989 H   0  0  0  0  0  0  0  0  0  0  0  0
   -0.5776   -2.4163    0.8677 H   0  0  0  0  0  0  0  0  0  0  0  0
   -5.0525   -1.9862   -1.7890 H   0  0  0  0  0  0  0  0  0  0  0  0
   -4.4745   -4.6873    2.5392 H   0  0  0  0  0  0  0  0  0  0  0  0
   -6.5240   -5.0789    1.3890 H   0  0  0  0  0  0  0  0  0  0  0  0
   -7.0250   -3.4115    1.7218 H   0  0  0  0  0  0  0  0  0  0  0  0
   -7.8260   -2.7635    3.9166 H   0  0  0  0  0  0  0  0  0  0  0  0
   -8.4828   -3.4068    6.2086 H   0  0  0  0  0  0  0  0  0  0  0  0
   -7.9020   -5.6493    7.0912 H   0  0  0  0  0  0  0  0  0  0  0  0
   -6.6911   -7.2709    5.6603 H   0  0  0  0  0  0  0  0  0  0  0  0
   -6.0475   -6.6584    3.3563 H   0  0  0  0  0  0  0  0  0  0  0  0
   -2.8177   -3.7732    3.0669 H   0  0  0  0  0  0  0  0  0  0  0  0
   -1.3398   -3.3444    2.4310 H   0  0  0  0  0  0  0  0  0  0  0  0
  1  2  1  0  0  0  0
  1 24  1  0  0  0  0
  1 25  1  0  0  0  0
  1 26  1  0  0  0  0
  2  3  1  0  0  0  0
  2  7  2  0  0  0  0
  3  4  2  0  0  0  0
  3 27  1  0  0  0  0
  4  5  1  0  0  0  0
  4 28  1  0  0  0  0
  5  6  2  0  0  0  0
  5 29  1  0  0  0  0
  6  7  1  0  0  0  0
  6 30  1  0  0  0  0
  7  8  1  0  0  0  0
  8  9  1  0  0  0  0
  8 31  1  0  0  0  0
  9 10  1  0  0  0  0
  9 22  2  0  0  0  0
 10 11  2  0  0  0  0
 11 12  1  0  0  0  0
 11 32  1  0  0  0  0
 12 13  2  0  0  0  0
 13 14  1  0  0  0  0
 13 22  1  0  0  0  0
 14 15  1  0  0  0  0
 14 33  1  0  0  0  0
 15 16  1  0  0  0  0
 15 34  1  0  0  0  0
 15 35  1  0  0  0  0
 16 17  1  0  0  0  0
 16 21  2  0  0  0  0
 17 18  2  0  0  0  0
 17 36  1  0  0  0  0
 18 19  1  0  0  0  0
 18 37  1  0  0  0  0
 19 20  2  0  0  0  0
 19 38  1  0  0  0  0
 20 21  1  0  0  0  0
 20 39  1  0  0  0  0
 21 40  1  0  0  0  0
 22 23  1  0  0  0  0
 23 41  1  0  0  0  0
 23 42  1  0  0  0  0
M  CHG  1   6   1
M  END
$$$$
