
 OpenBabel01112423053D

 43 46  0  0  0  0  0  0  0  0999 V2000
    0.6511    0.5519    0.3937 N   0  0  0  0  0  0  0  0  0  0  0  0
    2.0157    0.2796    0.1029 C   0  0  0  0  0  0  0  0  0  0  0  0
    2.9497    1.3267   -0.0035 C   0  0  0  0  0  0  0  0  0  0  0  0
    2.4173    2.6084    0.1435 N   0  0  0  0  0  0  0  0  0  0  0  0
    3.1420    3.7965   -0.2772 C   0  0  0  0  0  0  0  0  0  0  0  0
    2.3335    5.0137    0.0406 C   0  0  0  0  0  0  0  0  0  0  0  0
    1.5790    5.8895   -0.7140 C   0  0  0  0  0  0  0  0  0  0  0  0
    0.9545    6.7724    0.2022 C   0  0  0  0  0  0  0  0  0  0  0  0
    1.3620    6.3781    1.4546 C   0  0  0  0  0  0  0  0  0  0  0  0
    2.1933    5.3076    1.3688 O   0  0  0  0  0  0  0  0  0  0  0  0
    4.2458    1.1119   -0.2237 N   0  0  0  0  0  0  0  0  0  0  0  0
    4.6328   -0.1869   -0.2824 C   0  0  0  0  0  0  0  0  0  0  0  0
    3.8095   -1.2294   -0.1264 N   0  3  0  0  0  0  0  0  0  0  0  0
    2.5019   -1.0365    0.0719 C   0  0  0  0  0  0  0  0  0  0  0  0
    1.5885   -2.0956    0.2518 N   0  0  0  0  0  0  0  0  0  0  0  0
    1.7133   -3.4697   -0.0307 C   0  0  0  0  0  0  0  0  0  0  0  0
    2.5345   -3.8960   -1.0880 C   0  0  0  0  0  0  0  0  0  0  0  0
    2.8647   -5.2365   -1.2269 C   0  0  0  0  0  0  0  0  0  0  0  0
    2.3103   -6.1722   -0.3681 C   0  0  0  0  0  0  0  0  0  0  0  0
    1.2234   -5.8111    0.4264 C   0  0  0  0  0  0  0  0  0  0  0  0
    0.3832   -6.8163    0.9232 C   0  0  0  0  0  0  0  0  0  0  0  0
   -0.7816   -6.4902    1.6104 C   0  0  0  0  0  0  0  0  0  0  0  0
   -1.0499   -5.1638    1.9162 C   0  0  0  0  0  0  0  0  0  0  0  0
   -0.1932   -4.1527    1.4671 C   0  0  0  0  0  0  0  0  0  0  0  0
    0.9225   -4.4459    0.6428 C   0  0  0  0  0  0  0  0  0  0  0  0
    0.4395    1.5225    0.1307 H   0  0  0  0  0  0  0  0  0  0  0  0
    0.0168   -0.0857   -0.0883 H   0  0  0  0  0  0  0  0  0  0  0  0
    2.0501    2.7326    1.0892 H   0  0  0  0  0  0  0  0  0  0  0  0
    3.3107    3.7518   -1.3604 H   0  0  0  0  0  0  0  0  0  0  0  0
    4.1170    3.8666    0.2174 H   0  0  0  0  0  0  0  0  0  0  0  0
    1.4670    5.8795   -1.7893 H   0  0  0  0  0  0  0  0  0  0  0  0
    0.2795    7.5884   -0.0192 H   0  0  0  0  0  0  0  0  0  0  0  0
    1.1522    6.7316    2.4553 H   0  0  0  0  0  0  0  0  0  0  0  0
    5.6847   -0.3947   -0.4134 H   0  0  0  0  0  0  0  0  0  0  0  0
    4.1710   -2.1784   -0.1376 H   0  0  0  0  0  0  0  0  0  0  0  0
    0.9999   -1.8926    1.0679 H   0  0  0  0  0  0  0  0  0  0  0  0
    2.8916   -3.1979   -1.8410 H   0  0  0  0  0  0  0  0  0  0  0  0
    3.5135   -5.5712   -2.0319 H   0  0  0  0  0  0  0  0  0  0  0  0
    2.6492   -7.2046   -0.4093 H   0  0  0  0  0  0  0  0  0  0  0  0
    0.5769   -7.8602    0.6876 H   0  0  0  0  0  0  0  0  0  0  0  0
   -1.4857   -7.2726    1.8836 H   0  0  0  0  0  0  0  0  0  0  0  0
   -1.9518   -4.9124    2.4706 H   0  0  0  0  0  0  0  0  0  0  0  0
   -0.4763   -3.1332    1.7112 H   0  0  0  0  0  0  0  0  0  0  0  0
  1  2  1  0  0  0  0
  1 26  1  0  0  0  0
  1 27  1  0  0  0  0
  2  3  1  0  0  0  0
  2 14  2  0  0  0  0
  3  4  1  0  0  0  0
  3 11  2  0  0  0  0
  4  5  1  0  0  0  0
  4 28  1  0  0  0  0
  5  6  1  0  0  0  0
  5 29  1  0  0  0  0
  5 30  1  0  0  0  0
  6  7  2  0  0  0  0
  6 10  1  0  0  0  0
  7  8  1  0  0  0  0
  7 31  1  0  0  0  0
  8  9  2  0  0  0  0
  8 32  1  0  0  0  0
  9 10  1  0  0  0  0
  9 33  1  0  0  0  0
 11 12  1  0  0  0  0
 12 13  2  0  0  0  0
 12 34  1  0  0  0  0
 13 14  1  0  0  0  0
 13 35  1  0  0  0  0
 14 15  1  0  0  0  0
 15 16  1  0  0  0  0
 15 36  1  0  0  0  0
 16 17  1  0  0  0  0
 16 25  2  0  0  0  0
 17 18  2  0  0  0  0
 17 37  1  0  0  0  0
 18 19  1  0  0  0  0
 18 38  1  0  0  0  0
 19 20  2  0  0  0  0
 19 39  1  0  0  0  0
 20 21  1  0  0  0  0
 20 25  1  0  0  0  0
 21 22  2  0  0  0  0
 21 40  1  0  0  0  0
 22 23  1  0  0  0  0
 22 41  1  0  0  0  0
 23 24  2  0  0  0  0
 23 42  1  0  0  0  0
 24 25  1  0  0  0  0
 24 43  1  0  0  0  0
M  CHG  1  13   1
M  END
$$$$
