
 OpenBabel01112423083D

 38 39  0  0  1  0  0  0  0  0999 V2000
    4.7948    3.0080    0.1433 C   0  0  0  0  0  0  0  0  0  0  0  0
    4.4270    1.5412    0.1929 C   0  0  0  0  0  0  0  0  0  0  0  0
    4.8115    0.8674   -1.0860 N   0  3  0  0  0  0  0  0  0  0  0  0
    4.5053   -0.6165   -1.1548 C   0  0  1  0  0  0  0  0  0  0  0  0
    2.9993   -0.8121   -1.0137 C   0  0  0  0  0  0  0  0  0  0  0  0
    5.0422   -1.2240   -2.4793 C   0  0  0  0  0  0  0  0  0  0  0  0
    6.5404   -1.0502   -2.5441 C   0  0  0  0  0  0  0  0  0  0  0  0
    7.0565   -0.0791   -1.9702 O   0  0  0  0  0  0  0  0  0  0  0  0
    7.2370   -1.9502   -3.3253 N   0  0  0  0  0  0  0  0  0  0  0  0
    8.6483   -1.8406   -3.4762 C   0  0  0  0  0  0  0  0  0  0  0  0
    9.4517   -1.8835   -2.3226 C   0  0  0  0  0  0  0  0  0  0  0  0
   10.8203   -1.8055   -2.5051 C   0  0  0  0  0  0  0  0  0  0  0  0
   11.8443   -1.8074   -1.5678 N   0  0  0  0  0  0  0  0  0  0  0  0
   13.0714   -1.6824   -2.2379 C   0  0  0  0  0  0  0  0  0  0  0  0
   14.1759   -1.6289   -1.7288 O   0  0  0  0  0  0  0  0  0  0  0  0
   12.7744   -1.6181   -3.6064 N   0  0  0  0  0  0  0  0  0  0  0  0
   11.3930   -1.6907   -3.7686 C   0  0  0  0  0  0  0  0  0  0  0  0
   10.6458   -1.6352   -4.9134 C   0  0  0  0  0  0  0  0  0  0  0  0
    9.2512   -1.7009   -4.7580 C   0  0  0  0  0  0  0  0  0  0  0  0
    8.2033   -1.3779   -6.3116 Br  0  0  0  0  0  0  0  0  0  0  0  0
    4.4629    3.4976    1.0663 H   0  0  0  0  0  0  0  0  0  0  0  0
    4.3030    3.5099   -0.6959 H   0  0  0  0  0  0  0  0  0  0  0  0
    5.8736    3.1473    0.0516 H   0  0  0  0  0  0  0  0  0  0  0  0
    3.3452    1.4515    0.3050 H   0  0  0  0  0  0  0  0  0  0  0  0
    4.9372    1.0219    1.0091 H   0  0  0  0  0  0  0  0  0  0  0  0
    5.8411    0.9719   -1.2156 H   0  0  0  0  0  0  0  0  0  0  0  0
    4.3962    1.3582   -1.8849 H   0  0  0  0  0  0  0  0  0  0  0  0
    5.0316   -1.0766   -0.3059 H   0  0  0  0  0  0  0  0  0  0  0  0
    2.4527   -0.2440   -1.7749 H   0  0  0  0  0  0  0  0  0  0  0  0
    2.6448   -0.4814   -0.0301 H   0  0  0  0  0  0  0  0  0  0  0  0
    2.7172   -1.8637   -1.0970 H   0  0  0  0  0  0  0  0  0  0  0  0
    4.5950   -0.7264   -3.3380 H   0  0  0  0  0  0  0  0  0  0  0  0
    4.7960   -2.2895   -2.5355 H   0  0  0  0  0  0  0  0  0  0  0  0
    6.7354   -2.3775   -4.1014 H   0  0  0  0  0  0  0  0  0  0  0  0
    9.0343   -1.9813   -1.3312 H   0  0  0  0  0  0  0  0  0  0  0  0
   11.7731   -1.8698   -0.5654 H   0  0  0  0  0  0  0  0  0  0  0  0
   13.4766   -1.5165   -4.3225 H   0  0  0  0  0  0  0  0  0  0  0  0
   11.1117   -1.5040   -5.8808 H   0  0  0  0  0  0  0  0  0  0  0  0
  1  2  1  0  0  0  0
  1 21  1  0  0  0  0
  1 22  1  0  0  0  0
  1 23  1  0  0  0  0
  2  3  1  0  0  0  0
  2 24  1  0  0  0  0
  2 25  1  0  0  0  0
  3  4  1  0  0  0  0
  3 26  1  0  0  0  0
  3 27  1  0  0  0  0
  4  5  1  0  0  0  0
  4  6  1  0  0  0  0
  4 28  1  1  0  0  0
  5 29  1  0  0  0  0
  5 30  1  0  0  0  0
  5 31  1  0  0  0  0
  6  7  1  0  0  0  0
  6 32  1  0  0  0  0
  6 33  1  0  0  0  0
  7  8  2  0  0  0  0
  7  9  1  0  0  0  0
  9 10  1  0  0  0  0
  9 34  1  0  0  0  0
 10 11  1  0  0  0  0
 10 19  2  0  0  0  0
 11 12  2  0  0  0  0
 11 35  1  0  0  0  0
 12 13  1  0  0  0  0
 12 17  1  0  0  0  0
 13 14  1  0  0  0  0
 13 36  1  0  0  0  0
 14 15  2  0  0  0  0
 14 16  1  0  0  0  0
 16 17  1  0  0  0  0
 16 37  1  0  0  0  0
 17 18  2  0  0  0  0
 18 19  1  0  0  0  0
 18 38  1  0  0  0  0
 19 20  1  0  0  0  0
M  CHG  1   3   1
M  END
$$$$
