
 OpenBabel01112423173D

 42 45  0  0  1  0  0  0  0  0999 V2000
    1.1968    0.3555    0.3174 O   0  0  0  0  0  0  0  0  0  0  0  0
    2.2923   -0.0162   -0.0939 C   0  0  0  0  0  0  0  0  0  0  0  0
    2.8286   -1.2806    0.0642 N   0  0  0  0  0  0  0  0  0  0  0  0
    2.1874   -2.3723    0.6870 C   0  0  0  0  0  0  0  0  0  0  0  0
    0.8056   -2.4053    0.9233 C   0  0  0  0  0  0  0  0  0  0  0  0
    0.2157   -3.4849    1.5828 C   0  0  0  0  0  0  0  0  0  0  0  0
    1.0091   -4.5385    2.0058 C   0  0  0  0  0  0  0  0  0  0  0  0
    0.4491   -5.5646    2.6586 F   0  0  0  0  0  0  0  0  0  0  0  0
    2.3768   -4.5413    1.7593 C   0  0  0  0  0  0  0  0  0  0  0  0
    2.9668   -3.4637    1.0873 C   0  0  0  0  0  0  0  0  0  0  0  0
    3.1786    0.9364   -0.7770 C   0  0  0  0  0  0  0  0  0  0  0  0
    2.9115    2.3291   -0.8965 C   0  0  0  0  0  0  0  0  0  0  0  0
    3.9666    2.8379   -1.5939 C   0  0  0  0  0  0  0  0  0  0  0  0
    4.7596    1.7705   -1.9081 N   0  0  0  0  0  0  0  0  0  0  0  0
    4.3562    0.6032   -1.3577 N   0  0  0  0  0  0  0  0  0  0  0  0
    5.9561    1.8898   -2.7230 C   0  0  1  0  0  0  0  0  0  0  0  0
    5.6559    1.5201   -4.1680 C   0  0  0  0  0  0  0  0  0  0  0  0
    4.3759    1.1628   -4.3991 F   0  0  0  0  0  0  0  0  0  0  0  0
    5.9373    2.5354   -5.0211 F   0  0  0  0  0  0  0  0  0  0  0  0
    6.4353    0.4784   -4.5547 F   0  0  0  0  0  0  0  0  0  0  0  0
    6.5324    3.3156   -2.5802 C   0  0  0  0  0  0  0  0  0  0  0  0
    5.4369    4.3777   -2.8176 C   0  0  2  0  0  0  0  0  0  0  0  0
    5.9619    5.7587   -2.5900 C   0  0  0  0  0  0  0  0  0  0  0  0
    6.1843    6.5069   -1.4507 C   0  0  0  0  0  0  0  0  0  0  0  0
    6.5363    7.8045   -1.8896 C   0  0  0  0  0  0  0  0  0  0  0  0
    6.5470    7.7547   -3.2637 C   0  0  0  0  0  0  0  0  0  0  0  0
    6.2069    6.5141   -3.6985 O   0  0  0  0  0  0  0  0  0  0  0  0
    4.2920    4.0923   -1.9542 N   0  0  0  0  0  0  0  0  0  0  0  0
    3.8013   -1.3676   -0.2139 H   0  0  0  0  0  0  0  0  0  0  0  0
    0.1502   -1.6065    0.5890 H   0  0  0  0  0  0  0  0  0  0  0  0
   -0.8536   -3.4969    1.7673 H   0  0  0  0  0  0  0  0  0  0  0  0
    2.9765   -5.3785    2.1031 H   0  0  0  0  0  0  0  0  0  0  0  0
    4.0398   -3.4773    0.9161 H   0  0  0  0  0  0  0  0  0  0  0  0
    2.0614    2.8633   -0.4957 H   0  0  0  0  0  0  0  0  0  0  0  0
    6.6846    1.1803   -2.3118 H   0  0  0  0  0  0  0  0  0  0  0  0
    7.3765    3.4627   -3.2654 H   0  0  0  0  0  0  0  0  0  0  0  0
    6.9370    3.4274   -1.5637 H   0  0  0  0  0  0  0  0  0  0  0  0
    5.0828    4.3206   -3.8537 H   0  0  0  0  0  0  0  0  0  0  0  0
    6.0532    6.1640   -0.4331 H   0  0  0  0  0  0  0  0  0  0  0  0
    6.7400    8.6741   -1.2808 H   0  0  0  0  0  0  0  0  0  0  0  0
    6.7464    8.4824   -4.0381 H   0  0  0  0  0  0  0  0  0  0  0  0
    3.6419    4.8665   -1.8213 H   0  0  0  0  0  0  0  0  0  0  0  0
  1  2  2  0  0  0  0
  2  3  1  0  0  0  0
  2 11  1  0  0  0  0
  3  4  1  0  0  0  0
  3 29  1  0  0  0  0
  4  5  1  0  0  0  0
  4 10  2  0  0  0  0
  5  6  2  0  0  0  0
  5 30  1  0  0  0  0
  6  7  1  0  0  0  0
  6 31  1  0  0  0  0
  7  8  1  0  0  0  0
  7  9  2  0  0  0  0
  9 10  1  0  0  0  0
  9 32  1  0  0  0  0
 10 33  1  0  0  0  0
 11 12  1  0  0  0  0
 11 15  2  0  0  0  0
 12 13  2  0  0  0  0
 12 34  1  0  0  0  0
 13 14  1  0  0  0  0
 13 28  1  0  0  0  0
 14 15  1  0  0  0  0
 14 16  1  0  0  0  0
 16 21  1  0  0  0  0
 16 17  1  0  0  0  0
 16 35  1  1  0  0  0
 17 18  1  0  0  0  0
 17 19  1  0  0  0  0
 17 20  1  0  0  0  0
 21 22  1  0  0  0  0
 21 36  1  0  0  0  0
 21 37  1  0  0  0  0
 22 28  1  0  0  0  0
 22 23  1  0  0  0  0
 22 38  1  6  0  0  0
 23 24  2  0  0  0  0
 23 27  1  0  0  0  0
 24 25  1  0  0  0  0
 24 39  1  0  0  0  0
 25 26  2  0  0  0  0
 25 40  1  0  0  0  0
 26 27  1  0  0  0  0
 26 41  1  0  0  0  0
 28 42  1  0  0  0  0
M  END
$$$$
