
 OpenBabel01112423123D

 46 49  0  0  1  0  0  0  0  0999 V2000
    0.9269    0.0354    0.0667 C   0  0  0  0  0  0  0  0  0  0  0  0
    2.4551    0.0091    0.1143 C   0  0  2  0  0  0  0  0  0  0  0  0
    2.9545   -1.3901    0.4948 C   0  0  0  0  0  0  0  0  0  0  0  0
    4.4590   -1.5771    0.3036 C   0  0  0  0  0  0  0  0  0  0  0  0
    5.2791   -0.8566    1.2811 N   0  0  0  0  0  0  0  0  0  0  0  0
    5.6393   -1.4827    2.4794 C   0  0  0  0  0  0  0  0  0  0  0  0
    5.3006   -2.6521    2.6908 O   0  0  0  0  0  0  0  0  0  0  0  0
    6.4350   -0.6589    3.5087 C   0  0  0  0  0  0  0  0  0  0  0  0
    6.7574   -1.6403    5.0184 S   0  0  0  0  0  0  0  0  0  0  0  0
    7.7638   -0.5895    5.9552 C   0  0  0  0  0  0  0  0  0  0  0  0
    8.0944    0.6526    5.6857 N   0  0  0  0  0  0  0  0  0  0  0  0
    8.9700    1.0725    6.6713 N   0  0  0  0  0  0  0  0  0  0  0  0
    9.1850    0.0630    7.4990 C   0  0  0  0  0  0  0  0  0  0  0  0
   10.1352    0.0932    8.5823 C   0  0  0  0  0  0  0  0  0  0  0  0
   10.5560    1.2080    9.2860 C   0  0  0  0  0  0  0  0  0  0  0  0
   11.5418    0.9012   10.2750 C   0  0  0  0  0  0  0  0  0  0  0  0
   11.8574   -0.4347   10.2866 C   0  0  0  0  0  0  0  0  0  0  0  0
   10.9779   -1.3080    9.1146 S   0  0  0  0  0  0  0  0  0  0  0  0
    8.3765   -0.9934    7.1214 N   0  0  0  0  0  0  0  0  0  0  0  0
    8.1946   -2.2558    7.8043 N   0  0  0  0  0  0  0  0  0  0  0  0
    5.6524    0.4581    0.9127 C   0  0  0  0  0  0  0  0  0  0  0  0
    6.9745    0.6931    0.5138 C   0  0  0  0  0  0  0  0  0  0  0  0
    7.3446    1.9424    0.0133 C   0  0  0  0  0  0  0  0  0  0  0  0
    6.4018    2.9635   -0.0813 C   0  0  0  0  0  0  0  0  0  0  0  0
    5.0848    2.7376    0.3210 C   0  0  0  0  0  0  0  0  0  0  0  0
    4.6939    1.4817    0.8009 C   0  0  0  0  0  0  0  0  0  0  0  0
    2.9937    1.2832    1.3140 S   0  0  0  0  0  0  0  0  0  0  0  0
    0.5572   -0.6712   -0.6850 H   0  0  0  0  0  0  0  0  0  0  0  0
    0.5511    1.0264   -0.2124 H   0  0  0  0  0  0  0  0  0  0  0  0
    0.4828   -0.2449    1.0288 H   0  0  0  0  0  0  0  0  0  0  0  0
    2.8260    0.2843   -0.8805 H   0  0  0  0  0  0  0  0  0  0  0  0
    2.4552   -2.1193   -0.1569 H   0  0  0  0  0  0  0  0  0  0  0  0
    2.6635   -1.6434    1.5222 H   0  0  0  0  0  0  0  0  0  0  0  0
    4.7581   -1.2786   -0.7098 H   0  0  0  0  0  0  0  0  0  0  0  0
    4.6877   -2.6472    0.3785 H   0  0  0  0  0  0  0  0  0  0  0  0
    5.8589    0.2299    3.7813 H   0  0  0  0  0  0  0  0  0  0  0  0
    7.3952   -0.3726    3.0730 H   0  0  0  0  0  0  0  0  0  0  0  0
   10.1711    2.2047    9.1034 H   0  0  0  0  0  0  0  0  0  0  0  0
   11.9992    1.6285   10.9361 H   0  0  0  0  0  0  0  0  0  0  0  0
   12.5722   -0.9449   10.9228 H   0  0  0  0  0  0  0  0  0  0  0  0
    8.8374   -2.3453    8.5906 H   0  0  0  0  0  0  0  0  0  0  0  0
    8.4056   -3.0313    7.1785 H   0  0  0  0  0  0  0  0  0  0  0  0
    7.7119   -0.1050    0.5447 H   0  0  0  0  0  0  0  0  0  0  0  0
    8.3664    2.1161   -0.3163 H   0  0  0  0  0  0  0  0  0  0  0  0
    6.6887    3.9370   -0.4720 H   0  0  0  0  0  0  0  0  0  0  0  0
    4.3624    3.5480    0.2466 H   0  0  0  0  0  0  0  0  0  0  0  0
  1  2  1  0  0  0  0
  1 28  1  0  0  0  0
  1 29  1  0  0  0  0
  1 30  1  0  0  0  0
  2  3  1  0  0  0  0
  2 27  1  0  0  0  0
  2 31  1  6  0  0  0
  3  4  1  0  0  0  0
  3 32  1  0  0  0  0
  3 33  1  0  0  0  0
  4  5  1  0  0  0  0
  4 34  1  0  0  0  0
  4 35  1  0  0  0  0
  5  6  1  0  0  0  0
  5 21  1  0  0  0  0
  6  7  2  0  0  0  0
  6  8  1  0  0  0  0
  8  9  1  0  0  0  0
  8 36  1  0  0  0  0
  8 37  1  0  0  0  0
  9 10  1  0  0  0  0
 10 11  2  0  0  0  0
 10 19  1  0  0  0  0
 11 12  1  0  0  0  0
 12 13  2  0  0  0  0
 13 14  1  0  0  0  0
 13 19  1  0  0  0  0
 14 15  2  0  0  0  0
 14 18  1  0  0  0  0
 15 16  1  0  0  0  0
 15 38  1  0  0  0  0
 16 17  2  0  0  0  0
 16 39  1  0  0  0  0
 17 18  1  0  0  0  0
 17 40  1  0  0  0  0
 19 20  1  0  0  0  0
 20 41  1  0  0  0  0
 20 42  1  0  0  0  0
 21 22  1  0  0  0  0
 21 26  2  0  0  0  0
 22 23  2  0  0  0  0
 22 43  1  0  0  0  0
 23 24  1  0  0  0  0
 23 44  1  0  0  0  0
 24 25  2  0  0  0  0
 24 45  1  0  0  0  0
 25 26  1  0  0  0  0
 25 46  1  0  0  0  0
 26 27  1  0  0  0  0
M  END
$$$$
