
 OpenBabel01112423073D

 35 37  0  0  0  0  0  0  0  0999 V2000
    5.3037   -1.1813    0.7429 N   0  3  0  0  0  0  0  0  0  0  0  0
    4.1030   -0.5875    0.0984 N   0  0  0  0  0  0  0  0  0  0  0  0
    4.2315    0.6385   -0.6026 C   0  0  0  0  0  0  0  0  0  0  0  0
    3.3951    0.9047   -1.6984 C   0  0  0  0  0  0  0  0  0  0  0  0
    3.5811    2.0540   -2.4752 C   0  0  0  0  0  0  0  0  0  0  0  0
    4.5890    2.9613   -2.1383 C   0  0  0  0  0  0  0  0  0  0  0  0
    5.0667    4.2350   -3.3145 S   0  0  0  0  0  0  0  0  0  0  0  0
    6.4609    4.5082   -3.0312 O   0  0  0  0  0  0  0  0  0  0  0  0
    4.6540    3.7150   -4.6030 O   0  0  0  0  0  0  0  0  0  0  0  0
    4.1609    5.5047   -2.9046 N   0  0  0  0  0  0  0  0  0  0  0  0
    4.1944    6.5727   -3.6261 C   0  0  0  0  0  0  0  0  0  0  0  0
    3.4397    7.6945   -3.3929 N   0  0  0  0  0  0  0  0  0  0  0  0
    3.4701    8.6876   -4.3545 C   0  0  0  0  0  0  0  0  0  0  0  0
    2.5921    9.8468   -4.2120 C   0  0  0  0  0  0  0  0  0  0  0  0
    1.1065    9.6074   -4.0817 C   0  0  0  0  0  0  0  0  0  0  0  0
    1.6559   10.2350   -5.3280 C   0  0  0  0  0  0  0  0  0  0  0  0
    4.3450    8.4271   -5.3430 C   0  0  0  0  0  0  0  0  0  0  0  0
    5.1493    6.8931   -5.1035 S   0  0  0  0  0  0  0  0  0  0  0  0
    5.3622    2.7603   -0.9939 C   0  0  0  0  0  0  0  0  0  0  0  0
    5.1737    1.6085   -0.2243 C   0  0  0  0  0  0  0  0  0  0  0  0
    5.1937   -2.1851    0.9454 H   0  0  0  0  0  0  0  0  0  0  0  0
    5.5122   -0.6711    1.6153 H   0  0  0  0  0  0  0  0  0  0  0  0
    6.1351   -1.0316    0.1468 H   0  0  0  0  0  0  0  0  0  0  0  0
    3.4582   -1.2303   -0.3812 H   0  0  0  0  0  0  0  0  0  0  0  0
    2.6218    0.2019   -2.0050 H   0  0  0  0  0  0  0  0  0  0  0  0
    2.9735    2.2094   -3.3664 H   0  0  0  0  0  0  0  0  0  0  0  0
    2.7624    7.7373   -2.6482 H   0  0  0  0  0  0  0  0  0  0  0  0
    3.0177   10.6607   -3.6312 H   0  0  0  0  0  0  0  0  0  0  0  0
    0.5498   10.2370   -3.3970 H   0  0  0  0  0  0  0  0  0  0  0  0
    0.7164    8.5989   -4.1693 H   0  0  0  0  0  0  0  0  0  0  0  0
    1.4623   11.2908   -5.4861 H   0  0  0  0  0  0  0  0  0  0  0  0
    1.6373    9.6479   -6.2396 H   0  0  0  0  0  0  0  0  0  0  0  0
    4.5291    9.0531   -6.2070 H   0  0  0  0  0  0  0  0  0  0  0  0
    6.1396    3.4731   -0.7220 H   0  0  0  0  0  0  0  0  0  0  0  0
    5.7969    1.4876    0.6568 H   0  0  0  0  0  0  0  0  0  0  0  0
  1  2  1  0  0  0  0
  1 21  1  0  0  0  0
  1 22  1  0  0  0  0
  1 23  1  0  0  0  0
  2  3  1  0  0  0  0
  2 24  1  0  0  0  0
  3  4  1  0  0  0  0
  3 20  2  0  0  0  0
  4  5  2  0  0  0  0
  4 25  1  0  0  0  0
  5  6  1  0  0  0  0
  5 26  1  0  0  0  0
  6  7  1  0  0  0  0
  6 19  2  0  0  0  0
  7  8  2  0  0  0  0
  7  9  2  0  0  0  0
  7 10  1  0  0  0  0
 10 11  2  0  0  0  0
 11 12  1  0  0  0  0
 11 18  1  0  0  0  0
 12 13  1  0  0  0  0
 12 27  1  0  0  0  0
 13 14  1  0  0  0  0
 13 17  2  0  0  0  0
 14 15  1  0  0  0  0
 14 16  1  0  0  0  0
 14 28  1  0  0  0  0
 15 16  1  0  0  0  0
 15 29  1  0  0  0  0
 15 30  1  0  0  0  0
 16 31  1  0  0  0  0
 16 32  1  0  0  0  0
 17 18  1  0  0  0  0
 17 33  1  0  0  0  0
 19 20  1  0  0  0  0
 19 34  1  0  0  0  0
 20 35  1  0  0  0  0
M  CHG  1   1   1
M  END
$$$$
