
 OpenBabel01112423083D

 54 56  0  0  0  0  0  0  0  0999 V2000
    4.4536   -0.9479   -0.1685 C   0  0  0  0  0  0  0  0  0  0  0  0
    3.0918   -0.2167   -0.0761 C   0  0  0  0  0  0  0  0  0  0  0  0
    2.4935   -0.1262   -1.4936 C   0  0  0  0  0  0  0  0  0  0  0  0
    2.1780   -1.1206    0.7833 C   0  0  0  0  0  0  0  0  0  0  0  0
    3.2361    1.2083    0.5006 C   0  0  0  0  0  0  0  0  0  0  0  0
    4.4151    1.9476    0.3196 C   0  0  0  0  0  0  0  0  0  0  0  0
    4.5678    3.2347    0.8463 C   0  0  0  0  0  0  0  0  0  0  0  0
    3.5238    3.8626    1.5361 C   0  0  0  0  0  0  0  0  0  0  0  0
    3.6791    5.2885    2.0141 C   0  0  0  0  0  0  0  0  0  0  0  0
    3.2598    6.3762    1.0248 N   0  3  0  0  0  0  0  0  0  0  0  0
    4.0176    6.2742   -0.3061 C   0  0  0  0  0  0  0  0  0  0  0  0
    3.4279    7.1514   -1.4217 C   0  0  0  0  0  0  0  0  0  0  0  0
    1.9844    6.9750   -1.4859 N   0  0  0  0  0  0  0  0  0  0  0  0
    1.3119    6.3212   -2.4942 C   0  0  0  0  0  0  0  0  0  0  0  0
    1.9217    5.4512   -3.3763 C   0  0  0  0  0  0  0  0  0  0  0  0
    1.1433    4.8969   -4.3696 C   0  0  0  0  0  0  0  0  0  0  0  0
    1.7041    4.0239   -5.3030 N   0  0  0  0  0  0  0  0  0  0  0  0
   -0.1438    5.1864   -4.5178 N   0  0  0  0  0  0  0  0  0  0  0  0
   -0.6736    6.0123   -3.6207 C   0  0  0  0  0  0  0  0  0  0  0  0
   -2.0002    6.3621   -3.7819 N   0  0  0  0  0  0  0  0  0  0  0  0
   -0.0067    6.5736   -2.6098 N   0  0  0  0  0  0  0  0  0  0  0  0
    1.2665    7.3603   -0.2687 C   0  0  0  0  0  0  0  0  0  0  0  0
    1.7308    6.4705    0.9029 C   0  0  0  0  0  0  0  0  0  0  0  0
    2.3385    3.1384    1.7220 C   0  0  0  0  0  0  0  0  0  0  0  0
    2.1966    1.8402    1.2044 C   0  0  0  0  0  0  0  0  0  0  0  0
    4.3293   -1.9791   -0.5190 H   0  0  0  0  0  0  0  0  0  0  0  0
    4.9474   -0.9855    0.8098 H   0  0  0  0  0  0  0  0  0  0  0  0
    5.1381   -0.4670   -0.8755 H   0  0  0  0  0  0  0  0  0  0  0  0
    2.4090   -1.1204   -1.9496 H   0  0  0  0  0  0  0  0  0  0  0  0
    3.1163    0.4871   -2.1551 H   0  0  0  0  0  0  0  0  0  0  0  0
    1.4908    0.3161   -1.4802 H   0  0  0  0  0  0  0  0  0  0  0  0
    2.1375   -2.1384    0.3754 H   0  0  0  0  0  0  0  0  0  0  0  0
    1.1445   -0.7611    0.8168 H   0  0  0  0  0  0  0  0  0  0  0  0
    2.5467   -1.1916    1.8130 H   0  0  0  0  0  0  0  0  0  0  0  0
    5.2525    1.5366   -0.2390 H   0  0  0  0  0  0  0  0  0  0  0  0
    5.5183    3.7396    0.6852 H   0  0  0  0  0  0  0  0  0  0  0  0
    4.7302    5.4894    2.2558 H   0  0  0  0  0  0  0  0  0  0  0  0
    3.1074    5.4561    2.9347 H   0  0  0  0  0  0  0  0  0  0  0  0
    3.5510    7.2681    1.4424 H   0  0  0  0  0  0  0  0  0  0  0  0
    3.9853    5.2379   -0.6379 H   0  0  0  0  0  0  0  0  0  0  0  0
    5.0531    6.5658   -0.0948 H   0  0  0  0  0  0  0  0  0  0  0  0
    3.9285    6.9334   -2.3707 H   0  0  0  0  0  0  0  0  0  0  0  0
    3.6407    8.2056   -1.2076 H   0  0  0  0  0  0  0  0  0  0  0  0
    2.9687    5.1956   -3.3192 H   0  0  0  0  0  0  0  0  0  0  0  0
    2.1466    3.2222   -4.8689 H   0  0  0  0  0  0  0  0  0  0  0  0
    0.9550    3.7281   -5.9287 H   0  0  0  0  0  0  0  0  0  0  0  0
   -2.2626    6.2245   -4.7498 H   0  0  0  0  0  0  0  0  0  0  0  0
   -2.1560    7.2883   -3.4071 H   0  0  0  0  0  0  0  0  0  0  0  0
    0.1769    7.2829   -0.3491 H   0  0  0  0  0  0  0  0  0  0  0  0
    1.4874    8.4106   -0.0444 H   0  0  0  0  0  0  0  0  0  0  0  0
    1.3447    5.4591    0.7724 H   0  0  0  0  0  0  0  0  0  0  0  0
    1.3746    6.8802    1.8554 H   0  0  0  0  0  0  0  0  0  0  0  0
    1.4986    3.5658    2.2669 H   0  0  0  0  0  0  0  0  0  0  0  0
    1.2464    1.3345    1.3648 H   0  0  0  0  0  0  0  0  0  0  0  0
  1  2  1  0  0  0  0
  1 26  1  0  0  0  0
  1 27  1  0  0  0  0
  1 28  1  0  0  0  0
  2  3  1  0  0  0  0
  2  4  1  0  0  0  0
  2  5  1  0  0  0  0
  3 29  1  0  0  0  0
  3 30  1  0  0  0  0
  3 31  1  0  0  0  0
  4 32  1  0  0  0  0
  4 33  1  0  0  0  0
  4 34  1  0  0  0  0
  5  6  1  0  0  0  0
  5 25  2  0  0  0  0
  6  7  2  0  0  0  0
  6 35  1  0  0  0  0
  7  8  1  0  0  0  0
  7 36  1  0  0  0  0
  8  9  1  0  0  0  0
  8 24  2  0  0  0  0
  9 10  1  0  0  0  0
  9 37  1  0  0  0  0
  9 38  1  0  0  0  0
 10 11  1  0  0  0  0
 10 23  1  0  0  0  0
 10 39  1  0  0  0  0
 11 12  1  0  0  0  0
 11 40  1  0  0  0  0
 11 41  1  0  0  0  0
 12 13  1  0  0  0  0
 12 42  1  0  0  0  0
 12 43  1  0  0  0  0
 13 14  1  0  0  0  0
 13 22  1  0  0  0  0
 14 15  1  0  0  0  0
 14 21  2  0  0  0  0
 15 16  2  0  0  0  0
 15 44  1  0  0  0  0
 16 17  1  0  0  0  0
 16 18  1  0  0  0  0
 17 45  1  0  0  0  0
 17 46  1  0  0  0  0
 18 19  2  0  0  0  0
 19 20  1  0  0  0  0
 19 21  1  0  0  0  0
 20 47  1  0  0  0  0
 20 48  1  0  0  0  0
 22 23  1  0  0  0  0
 22 49  1  0  0  0  0
 22 50  1  0  0  0  0
 23 51  1  0  0  0  0
 23 52  1  0  0  0  0
 24 25  1  0  0  0  0
 24 53  1  0  0  0  0
 25 54  1  0  0  0  0
M  CHG  1  10   1
M  END
$$$$
