
 OpenBabel01112423083D

 50 53  0  0  0  0  0  0  0  0999 V2000
    1.1214    0.0700    0.7456 N   0  0  0  0  0  0  0  0  0  0  0  0
    1.4900    1.1084   -0.0512 C   0  0  0  0  0  0  0  0  0  0  0  0
    2.4504    1.8043    0.2416 O   0  0  0  0  0  0  0  0  0  0  0  0
    0.7096    1.2678   -1.3527 C   0  0  0  0  0  0  0  0  0  0  0  0
    1.0993    0.2101   -2.3793 C   0  0  0  0  0  0  0  0  0  0  0  0
    2.5395    0.3379   -2.8716 C   0  0  0  0  0  0  0  0  0  0  0  0
    2.9944    1.7543   -3.1432 N   0  3  0  0  0  0  0  0  0  0  0  0
    3.2575    2.0971   -4.5643 C   0  0  0  0  0  0  0  0  0  0  0  0
    2.5251    1.5603   -5.6129 C   0  0  0  0  0  0  0  0  0  0  0  0
    2.8774    1.8665   -6.9369 C   0  0  0  0  0  0  0  0  0  0  0  0
    3.9186    2.7553   -7.2358 C   0  0  0  0  0  0  0  0  0  0  0  0
    4.3049    3.0983   -8.5558 N   0  0  0  0  0  0  0  0  0  0  0  0
    3.8145    2.5370   -9.7300 C   0  0  0  0  0  0  0  0  0  0  0  0
    2.9721    1.6416   -9.7828 O   0  0  0  0  0  0  0  0  0  0  0  0
    4.3405    3.0703  -11.0278 C   0  0  0  0  0  0  0  0  0  0  0  0
    5.5482    3.7708  -11.1249 C   0  0  0  0  0  0  0  0  0  0  0  0
    5.9557    4.3350  -12.3443 C   0  0  0  0  0  0  0  0  0  0  0  0
    5.1944    4.1055  -13.5043 C   0  0  0  0  0  0  0  0  0  0  0  0
    5.2948    4.5274  -14.8567 C   0  0  0  0  0  0  0  0  0  0  0  0
    4.4013    3.7777  -15.5871 C   0  0  0  0  0  0  0  0  0  0  0  0
    3.6472    3.0485  -14.7054 N   0  0  0  0  0  0  0  0  0  0  0  0
    4.0760    3.2796  -13.4163 C   0  0  0  0  0  0  0  0  0  0  0  0
    3.5917    2.8009  -12.1916 C   0  0  0  0  0  0  0  0  0  0  0  0
    4.6141    3.3355   -6.1721 C   0  0  0  0  0  0  0  0  0  0  0  0
    4.2996    2.9958   -4.8458 C   0  0  0  0  0  0  0  0  0  0  0  0
    2.3595    2.9018   -2.3987 C   0  0  0  0  0  0  0  0  0  0  0  0
    0.9212    2.6393   -1.9848 C   0  0  0  0  0  0  0  0  0  0  0  0
    1.5863    0.0209    1.6475 H   0  0  0  0  0  0  0  0  0  0  0  0
    0.1888   -0.3235    0.7185 H   0  0  0  0  0  0  0  0  0  0  0  0
   -0.3558    1.1591   -1.1091 H   0  0  0  0  0  0  0  0  0  0  0  0
    0.4142    0.2764   -3.2346 H   0  0  0  0  0  0  0  0  0  0  0  0
    0.9601   -0.7947   -1.9598 H   0  0  0  0  0  0  0  0  0  0  0  0
    2.6919   -0.2800   -3.7653 H   0  0  0  0  0  0  0  0  0  0  0  0
    3.2214   -0.0576   -2.1101 H   0  0  0  0  0  0  0  0  0  0  0  0
    3.9493    1.7301   -2.7539 H   0  0  0  0  0  0  0  0  0  0  0  0
    1.7006    0.8711   -5.4607 H   0  0  0  0  0  0  0  0  0  0  0  0
    2.3009    1.3918   -7.7242 H   0  0  0  0  0  0  0  0  0  0  0  0
    4.9915    3.8377   -8.6404 H   0  0  0  0  0  0  0  0  0  0  0  0
    6.2168    3.8778  -10.2778 H   0  0  0  0  0  0  0  0  0  0  0  0
    6.8814    4.9003  -12.4084 H   0  0  0  0  0  0  0  0  0  0  0  0
    5.9973    5.2432  -15.2633 H   0  0  0  0  0  0  0  0  0  0  0  0
    4.2416    3.6995  -16.6546 H   0  0  0  0  0  0  0  0  0  0  0  0
    2.9235    2.3910  -14.9643 H   0  0  0  0  0  0  0  0  0  0  0  0
    2.6730    2.2210  -12.1475 H   0  0  0  0  0  0  0  0  0  0  0  0
    5.4252    4.0410   -6.3536 H   0  0  0  0  0  0  0  0  0  0  0  0
    4.8773    3.4594   -4.0467 H   0  0  0  0  0  0  0  0  0  0  0  0
    2.4072    3.8070   -3.0134 H   0  0  0  0  0  0  0  0  0  0  0  0
    3.0067    3.0950   -1.5391 H   0  0  0  0  0  0  0  0  0  0  0  0
    0.2735    2.7325   -2.8666 H   0  0  0  0  0  0  0  0  0  0  0  0
    0.6076    3.4253   -1.2872 H   0  0  0  0  0  0  0  0  0  0  0  0
  1  2  1  0  0  0  0
  1 28  1  0  0  0  0
  1 29  1  0  0  0  0
  2  3  2  0  0  0  0
  2  4  1  0  0  0  0
  4  5  1  0  0  0  0
  4 27  1  0  0  0  0
  4 30  1  0  0  0  0
  5  6  1  0  0  0  0
  5 31  1  0  0  0  0
  5 32  1  0  0  0  0
  6  7  1  0  0  0  0
  6 33  1  0  0  0  0
  6 34  1  0  0  0  0
  7  8  1  0  0  0  0
  7 26  1  0  0  0  0
  7 35  1  0  0  0  0
  8  9  1  0  0  0  0
  8 25  2  0  0  0  0
  9 10  2  0  0  0  0
  9 36  1  0  0  0  0
 10 11  1  0  0  0  0
 10 37  1  0  0  0  0
 11 12  1  0  0  0  0
 11 24  2  0  0  0  0
 12 13  1  0  0  0  0
 12 38  1  0  0  0  0
 13 14  2  0  0  0  0
 13 15  1  0  0  0  0
 15 16  1  0  0  0  0
 15 23  2  0  0  0  0
 16 17  2  0  0  0  0
 16 39  1  0  0  0  0
 17 18  1  0  0  0  0
 17 40  1  0  0  0  0
 18 19  1  0  0  0  0
 18 22  2  0  0  0  0
 19 20  2  0  0  0  0
 19 41  1  0  0  0  0
 20 21  1  0  0  0  0
 20 42  1  0  0  0  0
 21 22  1  0  0  0  0
 21 43  1  0  0  0  0
 22 23  1  0  0  0  0
 23 44  1  0  0  0  0
 24 25  1  0  0  0  0
 24 45  1  0  0  0  0
 25 46  1  0  0  0  0
 26 27  1  0  0  0  0
 26 47  1  0  0  0  0
 26 48  1  0  0  0  0
 27 49  1  0  0  0  0
 27 50  1  0  0  0  0
M  CHG  1   7   1
M  END
$$$$
