
 OpenBabel01112423123D

 45 48  0  0  0  0  0  0  0  0999 V2000
   -3.5066    0.1626    0.1422 C   0  0  0  0  0  0  0  0  0  0  0  0
   -2.0708   -0.2764    0.0727 C   0  0  0  0  0  0  0  0  0  0  0  0
   -1.6170   -1.5363    0.0460 C   0  0  0  0  0  0  0  0  0  0  0  0
   -2.4962   -2.7138    0.0569 C   0  0  0  0  0  0  0  0  0  0  0  0
   -2.9544   -3.2628   -1.1473 C   0  0  0  0  0  0  0  0  0  0  0  0
   -3.7751   -4.3921   -1.1362 C   0  0  0  0  0  0  0  0  0  0  0  0
   -4.1247   -4.9881    0.0747 C   0  0  0  0  0  0  0  0  0  0  0  0
   -3.6544   -4.4572    1.2752 C   0  0  0  0  0  0  0  0  0  0  0  0
   -2.8461   -3.3196    1.2674 C   0  0  0  0  0  0  0  0  0  0  0  0
   -0.2845   -1.9056   -0.0024 O   0  0  0  0  0  0  0  0  0  0  0  0
    0.6845   -0.9383    0.0135 C   0  0  0  0  0  0  0  0  0  0  0  0
    2.0326   -1.3320   -0.0045 C   0  0  0  0  0  0  0  0  0  0  0  0
    2.4802   -2.7607   -0.0592 C   0  0  0  0  0  0  0  0  0  0  0  0
    3.5458   -3.0604   -0.5936 O   0  0  0  0  0  0  0  0  0  0  0  0
    1.6560   -3.6945    0.5425 N   0  0  0  0  0  0  0  0  0  0  0  0
    2.0152   -5.0439    0.5378 N   0  0  0  0  0  0  0  0  0  0  0  0
    1.1847   -5.9695    1.1546 C   0  0  0  0  0  0  0  0  0  0  0  0
    0.1465   -5.6124    1.7159 O   0  0  0  0  0  0  0  0  0  0  0  0
    1.6339   -7.3569    1.0957 C   0  0  0  0  0  0  0  0  0  0  0  0
    1.0178   -8.4819    1.6223 C   0  0  0  0  0  0  0  0  0  0  0  0
    1.7592   -9.6777    1.3732 C   0  0  0  0  0  0  0  0  0  0  0  0
    2.9170   -9.4279    0.6730 C   0  0  0  0  0  0  0  0  0  0  0  0
    3.1032   -7.7748    0.3096 S   0  0  0  0  0  0  0  0  0  0  0  0
    3.0305   -0.3415    0.0045 C   0  0  0  0  0  0  0  0  0  0  0  0
    2.6934    1.0157    0.0360 C   0  0  0  0  0  0  0  0  0  0  0  0
    1.3544    1.3983    0.0422 C   0  0  0  0  0  0  0  0  0  0  0  0
    0.3544    0.4196    0.0303 C   0  0  0  0  0  0  0  0  0  0  0  0
   -1.0657    0.8170    0.0362 C   0  0  0  0  0  0  0  0  0  0  0  0
   -1.3905    1.9983    0.0170 O   0  0  0  0  0  0  0  0  0  0  0  0
   -4.2062   -0.6720    0.2398 H   0  0  0  0  0  0  0  0  0  0  0  0
   -3.7809    0.7181   -0.7608 H   0  0  0  0  0  0  0  0  0  0  0  0
   -3.6644    0.8138    1.0089 H   0  0  0  0  0  0  0  0  0  0  0  0
   -2.6660   -2.8251   -2.0999 H   0  0  0  0  0  0  0  0  0  0  0  0
   -4.1331   -4.8141   -2.0719 H   0  0  0  0  0  0  0  0  0  0  0  0
   -4.7536   -5.8746    0.0833 H   0  0  0  0  0  0  0  0  0  0  0  0
   -3.9063   -4.9375    2.2174 H   0  0  0  0  0  0  0  0  0  0  0  0
   -2.4789   -2.9240    2.2127 H   0  0  0  0  0  0  0  0  0  0  0  0
    0.7908   -3.4666    1.0315 H   0  0  0  0  0  0  0  0  0  0  0  0
    2.7932   -5.3258   -0.0567 H   0  0  0  0  0  0  0  0  0  0  0  0
    0.0737   -8.4550    2.1580 H   0  0  0  0  0  0  0  0  0  0  0  0
    1.4602  -10.6711    1.6861 H   0  0  0  0  0  0  0  0  0  0  0  0
    3.6673  -10.1346    0.3478 H   0  0  0  0  0  0  0  0  0  0  0  0
    4.0819   -0.6262   -0.0029 H   0  0  0  0  0  0  0  0  0  0  0  0
    3.4751    1.7734    0.0562 H   0  0  0  0  0  0  0  0  0  0  0  0
    1.0898    2.4567    0.0588 H   0  0  0  0  0  0  0  0  0  0  0  0
  1  2  1  0  0  0  0
  1 30  1  0  0  0  0
  1 31  1  0  0  0  0
  1 32  1  0  0  0  0
  2  3  2  0  0  0  0
  2 28  1  0  0  0  0
  3  4  1  0  0  0  0
  3 10  1  0  0  0  0
  4  5  1  0  0  0  0
  4  9  2  0  0  0  0
  5  6  2  0  0  0  0
  5 33  1  0  0  0  0
  6  7  1  0  0  0  0
  6 34  1  0  0  0  0
  7  8  2  0  0  0  0
  7 35  1  0  0  0  0
  8  9  1  0  0  0  0
  8 36  1  0  0  0  0
  9 37  1  0  0  0  0
 10 11  1  0  0  0  0
 11 12  1  0  0  0  0
 11 27  2  0  0  0  0
 12 13  1  0  0  0  0
 12 24  2  0  0  0  0
 13 14  2  0  0  0  0
 13 15  1  0  0  0  0
 15 16  1  0  0  0  0
 15 38  1  0  0  0  0
 16 17  1  0  0  0  0
 16 39  1  0  0  0  0
 17 18  2  0  0  0  0
 17 19  1  0  0  0  0
 19 20  2  0  0  0  0
 19 23  1  0  0  0  0
 20 21  1  0  0  0  0
 20 40  1  0  0  0  0
 21 22  2  0  0  0  0
 21 41  1  0  0  0  0
 22 23  1  0  0  0  0
 22 42  1  0  0  0  0
 24 25  1  0  0  0  0
 24 43  1  0  0  0  0
 25 26  2  0  0  0  0
 25 44  1  0  0  0  0
 26 27  1  0  0  0  0
 26 45  1  0  0  0  0
 27 28  1  0  0  0  0
 28 29  2  0  0  0  0
M  END
$$$$
