
 OpenBabel01112423173D

 42 44  0  0  0  0  0  0  0  0999 V2000
    1.0937   -0.3790    0.1781 C   0  0  0  0  0  0  0  0  0  0  0  0
    2.5915   -0.0529    0.0398 C   0  0  0  0  0  0  0  0  0  0  0  0
    3.3799   -1.3822    0.1131 C   0  0  0  0  0  0  0  0  0  0  0  0
    2.8685    0.5456   -1.3512 C   0  0  0  0  0  0  0  0  0  0  0  0
    3.0178    0.8467    1.1920 C   0  0  0  0  0  0  0  0  0  0  0  0
    3.5519    0.4040    2.3207 N   0  0  0  0  0  0  0  0  0  0  0  0
    3.7442    1.4660    3.1729 N   0  0  0  0  0  0  0  0  0  0  0  0
    3.3172    2.5439    2.5593 C   0  0  0  0  0  0  0  0  0  0  0  0
    3.3036    4.1578    3.1990 S   0  0  0  0  0  0  0  0  0  0  0  0
    4.0174    3.8655    4.8506 C   0  0  0  0  0  0  0  0  0  0  0  0
    4.1591    5.1381    5.6624 C   0  0  0  0  0  0  0  0  0  0  0  0
    5.3607    5.8695    5.5650 C   0  0  0  0  0  0  0  0  0  0  0  0
    5.5542    7.0423    6.2987 C   0  0  0  0  0  0  0  0  0  0  0  0
    4.5620    7.4969    7.1664 C   0  0  0  0  0  0  0  0  0  0  0  0
    3.3586    6.8035    7.2627 C   0  0  0  0  0  0  0  0  0  0  0  0
    3.1554    5.6333    6.5145 C   0  0  0  0  0  0  0  0  0  0  0  0
    1.4787    4.7645    6.7256 Br  0  0  0  0  0  0  0  0  0  0  0  0
    4.6938    8.6203    7.9414 O   0  0  0  0  0  0  0  0  0  0  0  0
    6.0537    9.0691    7.9987 C   0  0  0  0  0  0  0  0  0  0  0  0
    6.6921    9.0336    6.6197 C   0  0  0  0  0  0  0  0  0  0  0  0
    6.7502    7.6909    6.1228 O   0  0  0  0  0  0  0  0  0  0  0  0
    2.8459    2.2140    1.3073 N   0  0  0  0  0  0  0  0  0  0  0  0
    2.2792    3.1131    0.3399 N   0  0  0  0  0  0  0  0  0  0  0  0
    0.7538   -1.0362   -0.6306 H   0  0  0  0  0  0  0  0  0  0  0  0
    0.4775    0.5269    0.1518 H   0  0  0  0  0  0  0  0  0  0  0  0
    0.8852   -0.8874    1.1273 H   0  0  0  0  0  0  0  0  0  0  0  0
    3.0829   -2.0660   -0.6912 H   0  0  0  0  0  0  0  0  0  0  0  0
    3.2102   -1.9044    1.0617 H   0  0  0  0  0  0  0  0  0  0  0  0
    4.4586   -1.2077    0.0190 H   0  0  0  0  0  0  0  0  0  0  0  0
    2.6867   -0.1975   -2.1372 H   0  0  0  0  0  0  0  0  0  0  0  0
    3.9070    0.8798   -1.4453 H   0  0  0  0  0  0  0  0  0  0  0  0
    2.2165    1.3916   -1.5848 H   0  0  0  0  0  0  0  0  0  0  0  0
    5.0084    3.4107    4.7317 H   0  0  0  0  0  0  0  0  0  0  0  0
    3.4164    3.1285    5.3921 H   0  0  0  0  0  0  0  0  0  0  0  0
    6.1572    5.5289    4.9056 H   0  0  0  0  0  0  0  0  0  0  0  0
    2.5875    7.1758    7.9326 H   0  0  0  0  0  0  0  0  0  0  0  0
    6.6003    8.4385    8.7108 H   0  0  0  0  0  0  0  0  0  0  0  0
    6.0491   10.0935    8.3860 H   0  0  0  0  0  0  0  0  0  0  0  0
    7.7167    9.4151    6.6668 H   0  0  0  0  0  0  0  0  0  0  0  0
    6.1316    9.6466    5.9028 H   0  0  0  0  0  0  0  0  0  0  0  0
    1.9715    3.9719    0.7977 H   0  0  0  0  0  0  0  0  0  0  0  0
    1.4447    2.7230   -0.0897 H   0  0  0  0  0  0  0  0  0  0  0  0
  1  2  1  0  0  0  0
  1 24  1  0  0  0  0
  1 25  1  0  0  0  0
  1 26  1  0  0  0  0
  2  3  1  0  0  0  0
  2  4  1  0  0  0  0
  2  5  1  0  0  0  0
  3 27  1  0  0  0  0
  3 28  1  0  0  0  0
  3 29  1  0  0  0  0
  4 30  1  0  0  0  0
  4 31  1  0  0  0  0
  4 32  1  0  0  0  0
  5  6  2  0  0  0  0
  5 22  1  0  0  0  0
  6  7  1  0  0  0  0
  7  8  2  0  0  0  0
  8  9  1  0  0  0  0
  8 22  1  0  0  0  0
  9 10  1  0  0  0  0
 10 11  1  0  0  0  0
 10 33  1  0  0  0  0
 10 34  1  0  0  0  0
 11 12  1  0  0  0  0
 11 16  2  0  0  0  0
 12 13  2  0  0  0  0
 12 35  1  0  0  0  0
 13 14  1  0  0  0  0
 13 21  1  0  0  0  0
 14 15  2  0  0  0  0
 14 18  1  0  0  0  0
 15 16  1  0  0  0  0
 15 36  1  0  0  0  0
 16 17  1  0  0  0  0
 18 19  1  0  0  0  0
 19 20  1  0  0  0  0
 19 37  1  0  0  0  0
 19 38  1  0  0  0  0
 20 21  1  0  0  0  0
 20 39  1  0  0  0  0
 20 40  1  0  0  0  0
 22 23  1  0  0  0  0
 23 41  1  0  0  0  0
 23 42  1  0  0  0  0
M  END
$$$$
