
 OpenBabel01112423133D

 42 45  0  0  1  0  0  0  0  0999 V2000
    1.0746    0.4397    0.0859 C   0  0  0  0  0  0  0  0  0  0  0  0
    2.5351    0.0659   -0.0622 C   0  0  0  0  0  0  0  0  0  0  0  0
    3.0697   -1.1871   -0.0595 C   0  0  0  0  0  0  0  0  0  0  0  0
    2.2202   -2.4336    0.0458 C   0  0  0  0  0  0  0  0  0  0  0  0
    1.0635   -2.4243   -0.3592 O   0  0  0  0  0  0  0  0  0  0  0  0
    2.8711   -3.5500    0.5413 N   0  0  0  0  0  0  0  0  0  0  0  0
    2.3477   -4.8530    0.7093 C   0  0  0  0  0  0  0  0  0  0  0  0
    1.0079   -5.1940    0.5256 C   0  0  0  0  0  0  0  0  0  0  0  0
    0.5702   -6.4996    0.7736 C   0  0  0  0  0  0  0  0  0  0  0  0
    1.4694   -7.4767    1.1943 C   0  0  0  0  0  0  0  0  0  0  0  0
    2.8138   -7.1543    1.3544 C   0  0  0  0  0  0  0  0  0  0  0  0
    3.2496   -5.8497    1.1124 C   0  0  0  0  0  0  0  0  0  0  0  0
    4.5926   -1.3721   -0.2164 C   0  0  1  0  0  0  0  0  0  0  0  0
    5.0095   -2.3845   -1.2875 C   0  0  0  0  0  0  0  0  0  0  0  0
    4.2852   -2.4717   -2.4956 C   0  0  0  0  0  0  0  0  0  0  0  0
    4.6073   -3.4241   -3.4627 C   0  0  0  0  0  0  0  0  0  0  0  0
    5.6844   -4.2787   -3.2669 C   0  0  0  0  0  0  0  0  0  0  0  0
    6.4396   -4.1879   -2.1005 C   0  0  0  0  0  0  0  0  0  0  0  0
    6.1007   -3.2577   -1.1121 C   0  0  0  0  0  0  0  0  0  0  0  0
    7.1673   -3.2912    0.4654 Br  0  0  0  0  0  0  0  0  0  0  0  0
    5.2965   -0.1053   -0.4359 N   0  0  0  0  0  0  0  0  0  0  0  0
    6.6321    0.0253   -0.5413 N   0  0  0  0  0  0  0  0  0  0  0  0
    6.7519    1.3551   -0.6243 C   0  0  0  0  0  0  0  0  0  0  0  0
    5.5834    2.0612   -0.5259 N   0  0  0  0  0  0  0  0  0  0  0  0
    4.6868    1.1177   -0.3875 C   0  0  0  0  0  0  0  0  0  0  0  0
    3.3610    1.1792   -0.2016 N   0  0  0  0  0  0  0  0  0  0  0  0
    0.3832   -0.3901    0.2181 H   0  0  0  0  0  0  0  0  0  0  0  0
    0.7484    1.0024   -0.7978 H   0  0  0  0  0  0  0  0  0  0  0  0
    0.9487    1.0908    0.9590 H   0  0  0  0  0  0  0  0  0  0  0  0
    3.8464   -3.4821    0.7882 H   0  0  0  0  0  0  0  0  0  0  0  0
    0.2695   -4.4656    0.2068 H   0  0  0  0  0  0  0  0  0  0  0  0
   -0.4805   -6.7476    0.6436 H   0  0  0  0  0  0  0  0  0  0  0  0
    1.1218   -8.4867    1.3961 H   0  0  0  0  0  0  0  0  0  0  0  0
    3.5215   -7.9152    1.6717 H   0  0  0  0  0  0  0  0  0  0  0  0
    4.3061   -5.6290    1.2411 H   0  0  0  0  0  0  0  0  0  0  0  0
    4.9411   -1.6920    0.7732 H   0  0  0  0  0  0  0  0  0  0  0  0
    3.4356   -1.8180   -2.6892 H   0  0  0  0  0  0  0  0  0  0  0  0
    4.0108   -3.4997   -4.3693 H   0  0  0  0  0  0  0  0  0  0  0  0
    5.9393   -5.0188   -4.0228 H   0  0  0  0  0  0  0  0  0  0  0  0
    7.2863   -4.8570   -1.9663 H   0  0  0  0  0  0  0  0  0  0  0  0
    7.7191    1.8238   -0.7506 H   0  0  0  0  0  0  0  0  0  0  0  0
    2.9218    2.0962   -0.1677 H   0  0  0  0  0  0  0  0  0  0  0  0
  1  2  1  0  0  0  0
  1 27  1  0  0  0  0
  1 28  1  0  0  0  0
  1 29  1  0  0  0  0
  2  3  2  0  0  0  0
  2 26  1  0  0  0  0
  3  4  1  0  0  0  0
  3 13  1  0  0  0  0
  4  5  2  0  0  0  0
  4  6  1  0  0  0  0
  6  7  1  0  0  0  0
  6 30  1  0  0  0  0
  7  8  1  0  0  0  0
  7 12  2  0  0  0  0
  8  9  2  0  0  0  0
  8 31  1  0  0  0  0
  9 10  1  0  0  0  0
  9 32  1  0  0  0  0
 10 11  2  0  0  0  0
 10 33  1  0  0  0  0
 11 12  1  0  0  0  0
 11 34  1  0  0  0  0
 12 35  1  0  0  0  0
 13 14  1  0  0  0  0
 13 21  1  0  0  0  0
 13 36  1  1  0  0  0
 14 15  1  0  0  0  0
 14 19  2  0  0  0  0
 15 16  2  0  0  0  0
 15 37  1  0  0  0  0
 16 17  1  0  0  0  0
 16 38  1  0  0  0  0
 17 18  2  0  0  0  0
 17 39  1  0  0  0  0
 18 19  1  0  0  0  0
 18 40  1  0  0  0  0
 19 20  1  0  0  0  0
 21 22  1  0  0  0  0
 21 25  1  0  0  0  0
 22 23  2  0  0  0  0
 23 24  1  0  0  0  0
 23 41  1  0  0  0  0
 24 25  2  0  0  0  0
 25 26  1  0  0  0  0
 26 42  1  0  0  0  0
M  END
$$$$
