
 OpenBabel01112423133D

 36 38  0  0  0  0  0  0  0  0999 V2000
    1.0960   -0.3227    0.4557 O   0  0  0  0  0  0  0  0  0  0  0  0
    2.2348    0.0095    0.1367 C   0  0  0  0  0  0  0  0  0  0  0  0
    2.8276   -0.2345   -1.0876 N   0  0  0  0  0  0  0  0  0  0  0  0
    2.1658   -0.8396   -2.1868 C   0  0  0  0  0  0  0  0  0  0  0  0
    0.7725   -0.9315   -2.2723 C   0  0  0  0  0  0  0  0  0  0  0  0
    0.1559   -1.6092   -3.3263 C   0  0  0  0  0  0  0  0  0  0  0  0
    0.9289   -2.1939   -4.3269 C   0  0  0  0  0  0  0  0  0  0  0  0
    0.1033   -3.0574   -5.5730 Cl  0  0  0  0  0  0  0  0  0  0  0  0
    2.3205   -2.0670   -4.2809 C   0  0  0  0  0  0  0  0  0  0  0  0
    3.3422   -2.7578   -5.4933 Cl  0  0  0  0  0  0  0  0  0  0  0  0
    2.9373   -1.3823   -3.2218 C   0  0  0  0  0  0  0  0  0  0  0  0
    3.0996    0.6941    1.1473 C   0  0  0  0  0  0  0  0  0  0  0  0
    2.7739    0.5162    2.4264 C   0  0  0  0  0  0  0  0  0  0  0  0
    3.5084    1.2393    3.4723 C   0  0  0  0  0  0  0  0  0  0  0  0
    3.2000    1.0068    4.6400 O   0  0  0  0  0  0  0  0  0  0  0  0
    4.5175    2.0956    3.0417 N   0  0  0  0  0  0  0  0  0  0  0  0
    5.2211    2.8483    4.0314 C   0  0  0  0  0  0  0  0  0  0  0  0
    6.6210    2.8275    4.0797 C   0  0  0  0  0  0  0  0  0  0  0  0
    7.3024    3.5180    5.0864 C   0  0  0  0  0  0  0  0  0  0  0  0
    6.5899    4.2642    6.0230 C   0  0  0  0  0  0  0  0  0  0  0  0
    7.4322    5.1223    7.2528 Cl  0  0  0  0  0  0  0  0  0  0  0  0
    5.1996    4.3155    5.9722 C   0  0  0  0  0  0  0  0  0  0  0  0
    4.5161    3.5945    4.9897 C   0  0  0  0  0  0  0  0  0  0  0  0
    4.8631    2.2506    1.6975 C   0  0  0  0  0  0  0  0  0  0  0  0
    5.7242    3.0094    1.2536 O   0  0  0  0  0  0  0  0  0  0  0  0
    4.1261    1.5205    0.7949 N   0  0  0  0  0  0  0  0  0  0  0  0
    3.8334   -0.1380   -1.1529 H   0  0  0  0  0  0  0  0  0  0  0  0
    0.1220   -0.4791   -1.5284 H   0  0  0  0  0  0  0  0  0  0  0  0
   -0.9295   -1.6812   -3.3445 H   0  0  0  0  0  0  0  0  0  0  0  0
    4.0204   -1.3083   -3.2030 H   0  0  0  0  0  0  0  0  0  0  0  0
    1.9668   -0.1270    2.7581 H   0  0  0  0  0  0  0  0  0  0  0  0
    7.1925    2.2389    3.3663 H   0  0  0  0  0  0  0  0  0  0  0  0
    8.3865    3.4627    5.1368 H   0  0  0  0  0  0  0  0  0  0  0  0
    4.6410    4.9056    6.6938 H   0  0  0  0  0  0  0  0  0  0  0  0
    3.4290    3.6412    4.9686 H   0  0  0  0  0  0  0  0  0  0  0  0
    4.3152    1.7384   -0.1758 H   0  0  0  0  0  0  0  0  0  0  0  0
  1  2  2  0  0  0  0
  2  3  1  0  0  0  0
  2 12  1  0  0  0  0
  3  4  1  0  0  0  0
  3 27  1  0  0  0  0
  4  5  1  0  0  0  0
  4 11  2  0  0  0  0
  5  6  2  0  0  0  0
  5 28  1  0  0  0  0
  6  7  1  0  0  0  0
  6 29  1  0  0  0  0
  7  8  1  0  0  0  0
  7  9  2  0  0  0  0
  9 10  1  0  0  0  0
  9 11  1  0  0  0  0
 11 30  1  0  0  0  0
 12 13  2  0  0  0  0
 12 26  1  0  0  0  0
 13 14  1  0  0  0  0
 13 31  1  0  0  0  0
 14 15  2  0  0  0  0
 14 16  1  0  0  0  0
 16 17  1  0  0  0  0
 16 24  1  0  0  0  0
 17 18  1  0  0  0  0
 17 23  2  0  0  0  0
 18 19  2  0  0  0  0
 18 32  1  0  0  0  0
 19 20  1  0  0  0  0
 19 33  1  0  0  0  0
 20 21  1  0  0  0  0
 20 22  2  0  0  0  0
 22 23  1  0  0  0  0
 22 34  1  0  0  0  0
 23 35  1  0  0  0  0
 24 25  2  0  0  0  0
 24 26  1  0  0  0  0
 26 36  1  0  0  0  0
M  END
$$$$
