
 OpenBabel01112423093D

 52 57  0  0  0  0  0  0  0  0999 V2000
    2.9934    1.2768    1.4048 C   0  0  0  0  0  0  0  0  0  0  0  0
    2.6870    0.3004    0.2920 C   0  0  0  0  0  0  0  0  0  0  0  0
    3.7593    0.0026   -0.6318 N   0  0  0  0  0  0  0  0  0  0  0  0
    4.2229   -1.3061   -0.6548 C   0  0  0  0  0  0  0  0  0  0  0  0
    4.7943   -1.4853   -1.8770 C   0  0  0  0  0  0  0  0  0  0  0  0
    5.5009   -0.2694   -1.8910 C   0  0  0  0  0  0  0  0  0  0  0  0
    6.8448   -0.0481   -2.1454 C   0  0  0  0  0  0  0  0  0  0  0  0
    7.3283    1.2337   -2.0473 C   0  0  0  0  0  0  0  0  0  0  0  0
    6.4667    2.3294   -1.9507 C   0  0  0  0  0  0  0  0  0  0  0  0
    5.0732    2.1313   -1.6187 C   0  0  0  0  0  0  0  0  0  0  0  0
    4.3025    3.3046   -1.6932 C   0  0  0  0  0  0  0  0  0  0  0  0
    4.7643    4.6210   -2.0406 C   0  0  0  0  0  0  0  0  0  0  0  0
    6.1801    4.7612   -2.2971 C   0  0  0  0  0  0  0  0  0  0  0  0
    6.8065    5.9322   -2.6687 C   0  0  0  0  0  0  0  0  0  0  0  0
    6.4892    7.2894   -2.9133 C   0  0  0  0  0  0  0  0  0  0  0  0
    7.4748    8.2165   -3.2612 C   0  0  0  0  0  0  0  0  0  0  0  0
    8.7944    7.8243   -3.3681 C   0  0  0  0  0  0  0  0  0  0  0  0
    9.1564    6.4881   -3.1456 C   0  0  0  0  0  0  0  0  0  0  0  0
    8.1554    5.5443   -2.8089 C   0  0  0  0  0  0  0  0  0  0  0  0
    8.2398    4.1651   -2.5576 N   0  0  0  0  0  0  0  0  0  0  0  0
    9.5062    3.4360   -2.5494 C   0  0  0  0  0  0  0  0  0  0  0  0
    9.8422    2.7271   -3.8750 C   0  0  0  0  0  0  0  0  0  0  0  0
   11.1268    1.9123   -3.7614 C   0  0  0  0  0  0  0  0  0  0  0  0
   12.2057    2.7517   -3.3782 O   0  0  0  0  0  0  0  0  0  0  0  0
    6.9786    3.6365   -2.2328 C   0  0  0  0  0  0  0  0  0  0  0  0
    3.6725    5.5505   -2.1121 C   0  0  0  0  0  0  0  0  0  0  0  0
    3.5434    6.7334   -2.4197 O   0  0  0  0  0  0  0  0  0  0  0  0
    2.6102    4.7539   -1.7641 N   0  0  0  0  0  0  0  0  0  0  0  0
    2.8675    3.4377   -1.5401 C   0  0  0  0  0  0  0  0  0  0  0  0
    1.9660    2.6340   -1.3346 O   0  0  0  0  0  0  0  0  0  0  0  0
    4.6821    0.7642   -1.3652 C   0  0  0  0  0  0  0  0  0  0  0  0
    2.0739    1.8019    1.6786 H   0  0  0  0  0  0  0  0  0  0  0  0
    3.7477    2.0024    1.1125 H   0  0  0  0  0  0  0  0  0  0  0  0
    3.3461    0.7553    2.3052 H   0  0  0  0  0  0  0  0  0  0  0  0
    1.8097    0.5819   -0.2932 H   0  0  0  0  0  0  0  0  0  0  0  0
    2.3848   -0.6582    0.7704 H   0  0  0  0  0  0  0  0  0  0  0  0
    4.2860   -1.9150    0.2400 H   0  0  0  0  0  0  0  0  0  0  0  0
    5.1713   -2.4213   -2.2771 H   0  0  0  0  0  0  0  0  0  0  0  0
    7.5160   -0.8903   -2.2886 H   0  0  0  0  0  0  0  0  0  0  0  0
    8.3930    1.2861   -2.1240 H   0  0  0  0  0  0  0  0  0  0  0  0
    5.4712    7.6604   -2.8424 H   0  0  0  0  0  0  0  0  0  0  0  0
    7.1944    9.2567   -3.4481 H   0  0  0  0  0  0  0  0  0  0  0  0
    9.5514    8.5588   -3.6322 H   0  0  0  0  0  0  0  0  0  0  0  0
   10.2016    6.2088   -3.2380 H   0  0  0  0  0  0  0  0  0  0  0  0
    9.4797    2.7386   -1.7092 H   0  0  0  0  0  0  0  0  0  0  0  0
   10.2981    4.1309   -2.2694 H   0  0  0  0  0  0  0  0  0  0  0  0
    9.9686    3.4841   -4.6584 H   0  0  0  0  0  0  0  0  0  0  0  0
    9.0326    2.0668   -4.2041 H   0  0  0  0  0  0  0  0  0  0  0  0
   11.3784    1.4388   -4.7174 H   0  0  0  0  0  0  0  0  0  0  0  0
   11.0321    1.1164   -3.0136 H   0  0  0  0  0  0  0  0  0  0  0  0
   12.2405    3.4931   -4.0080 H   0  0  0  0  0  0  0  0  0  0  0  0
    1.6715    5.1215   -1.7803 H   0  0  0  0  0  0  0  0  0  0  0  0
  1  2  1  0  0  0  0
  1 32  1  0  0  0  0
  1 33  1  0  0  0  0
  1 34  1  0  0  0  0
  2  3  1  0  0  0  0
  2 35  1  0  0  0  0
  2 36  1  0  0  0  0
  3  4  1  0  0  0  0
  3 31  1  0  0  0  0
  4  5  2  0  0  0  0
  4 37  1  0  0  0  0
  5  6  1  0  0  0  0
  5 38  1  0  0  0  0
  6  7  1  0  0  0  0
  6 31  2  0  0  0  0
  7  8  2  0  0  0  0
  7 39  1  0  0  0  0
  8  9  1  0  0  0  0
  8 40  1  0  0  0  0
  9 10  1  0  0  0  0
  9 25  2  0  0  0  0
 10 11  2  0  0  0  0
 10 31  1  0  0  0  0
 11 12  1  0  0  0  0
 11 29  1  0  0  0  0
 12 13  2  0  0  0  0
 12 26  1  0  0  0  0
 13 14  1  0  0  0  0
 13 25  1  0  0  0  0
 14 15  1  0  0  0  0
 14 19  2  0  0  0  0
 15 16  2  0  0  0  0
 15 41  1  0  0  0  0
 16 17  1  0  0  0  0
 16 42  1  0  0  0  0
 17 18  2  0  0  0  0
 17 43  1  0  0  0  0
 18 19  1  0  0  0  0
 18 44  1  0  0  0  0
 19 20  1  0  0  0  0
 20 21  1  0  0  0  0
 20 25  1  0  0  0  0
 21 22  1  0  0  0  0
 21 45  1  0  0  0  0
 21 46  1  0  0  0  0
 22 23  1  0  0  0  0
 22 47  1  0  0  0  0
 22 48  1  0  0  0  0
 23 24  1  0  0  0  0
 23 49  1  0  0  0  0
 23 50  1  0  0  0  0
 24 51  1  0  0  0  0
 26 27  2  0  0  0  0
 26 28  1  0  0  0  0
 28 29  1  0  0  0  0
 28 52  1  0  0  0  0
 29 30  2  0  0  0  0
M  END
$$$$
