
 OpenBabel01112423153D

 45 48  0  0  1  0  0  0  0  0999 V2000
    4.0309    1.8179    3.2022 C   0  0  0  0  0  0  0  0  0  0  0  0
    2.9435    1.8029    2.1616 C   0  0  0  0  0  0  0  0  0  0  0  0
    1.9076    2.7524    2.3011 C   0  0  0  0  0  0  0  0  0  0  0  0
    0.8608    2.8021    1.3909 C   0  0  0  0  0  0  0  0  0  0  0  0
   -0.1108    3.7104    1.5428 F   0  0  0  0  0  0  0  0  0  0  0  0
    0.8137    1.9243    0.3277 C   0  0  0  0  0  0  0  0  0  0  0  0
    1.8335    0.9836    0.1718 C   0  0  0  0  0  0  0  0  0  0  0  0
    2.9143    0.9001    1.0715 C   0  0  0  0  0  0  0  0  0  0  0  0
    3.9568   -0.0451    0.8807 N   0  0  0  0  0  0  0  0  0  0  0  0
    4.0185   -1.0300   -0.1052 C   0  0  0  0  0  0  0  0  0  0  0  0
    3.1357   -1.2965   -0.9160 O   0  0  0  0  0  0  0  0  0  0  0  0
    5.2982   -1.7552   -0.1674 C   0  0  0  0  0  0  0  0  0  0  0  0
    5.6175   -2.7736   -1.1141 C   0  0  0  0  0  0  0  0  0  0  0  0
    6.9410   -3.0544   -0.9143 C   0  0  0  0  0  0  0  0  0  0  0  0
    7.3536   -2.2004    0.0741 N   0  0  0  0  0  0  0  0  0  0  0  0
    6.3441   -1.5106    0.6509 N   0  0  0  0  0  0  0  0  0  0  0  0
    8.7246   -2.1164    0.5414 C   0  0  2  0  0  0  0  0  0  0  0  0
    9.1814   -0.6800    0.7719 C   0  0  0  0  0  0  0  0  0  0  0  0
    8.2601    0.2700    0.5127 F   0  0  0  0  0  0  0  0  0  0  0  0
    9.5616   -0.5197    2.0657 F   0  0  0  0  0  0  0  0  0  0  0  0
   10.2666   -0.3662    0.0201 F   0  0  0  0  0  0  0  0  0  0  0  0
    9.6893   -2.8443   -0.4212 C   0  0  0  0  0  0  0  0  0  0  0  0
    9.1055   -4.1754   -0.9203 C   0  0  2  0  0  0  0  0  0  0  0  0
   10.0716   -4.8241   -1.8648 C   0  0  0  0  0  0  0  0  0  0  0  0
   10.2745   -4.7367   -3.2285 C   0  0  0  0  0  0  0  0  0  0  0  0
   11.3669   -5.5866   -3.5277 C   0  0  0  0  0  0  0  0  0  0  0  0
   11.7625   -6.1350   -2.3316 C   0  0  0  0  0  0  0  0  0  0  0  0
   10.9843   -5.6786   -1.3154 O   0  0  0  0  0  0  0  0  0  0  0  0
    7.7993   -3.9016   -1.5251 N   0  0  0  0  0  0  0  0  0  0  0  0
    3.7953    2.5227    4.0099 H   0  0  0  0  0  0  0  0  0  0  0  0
    4.9807    2.1334    2.7617 H   0  0  0  0  0  0  0  0  0  0  0  0
    4.1382    0.8329    3.6655 H   0  0  0  0  0  0  0  0  0  0  0  0
    1.9026    3.4652    3.1221 H   0  0  0  0  0  0  0  0  0  0  0  0
   -0.0046    1.9685   -0.3835 H   0  0  0  0  0  0  0  0  0  0  0  0
    1.7508    0.3364   -0.6930 H   0  0  0  0  0  0  0  0  0  0  0  0
    4.7707   -0.0070    1.4805 H   0  0  0  0  0  0  0  0  0  0  0  0
    4.9602   -3.1873   -1.8654 H   0  0  0  0  0  0  0  0  0  0  0  0
    8.7263   -2.6536    1.4994 H   0  0  0  0  0  0  0  0  0  0  0  0
   10.6558   -3.0045    0.0737 H   0  0  0  0  0  0  0  0  0  0  0  0
    9.8851   -2.2058   -1.2954 H   0  0  0  0  0  0  0  0  0  0  0  0
    8.9534   -4.8503   -0.0672 H   0  0  0  0  0  0  0  0  0  0  0  0
    9.7040   -4.1277   -3.9171 H   0  0  0  0  0  0  0  0  0  0  0  0
   11.8134   -5.7724   -4.4953 H   0  0  0  0  0  0  0  0  0  0  0  0
   12.5422   -6.8293   -2.0479 H   0  0  0  0  0  0  0  0  0  0  0  0
    7.4374   -4.6544   -2.1115 H   0  0  0  0  0  0  0  0  0  0  0  0
  1  2  1  0  0  0  0
  1 30  1  0  0  0  0
  1 31  1  0  0  0  0
  1 32  1  0  0  0  0
  2  3  1  0  0  0  0
  2  8  2  0  0  0  0
  3  4  2  0  0  0  0
  3 33  1  0  0  0  0
  4  5  1  0  0  0  0
  4  6  1  0  0  0  0
  6  7  2  0  0  0  0
  6 34  1  0  0  0  0
  7  8  1  0  0  0  0
  7 35  1  0  0  0  0
  8  9  1  0  0  0  0
  9 10  1  0  0  0  0
  9 36  1  0  0  0  0
 10 11  2  0  0  0  0
 10 12  1  0  0  0  0
 12 13  1  0  0  0  0
 12 16  2  0  0  0  0
 13 14  2  0  0  0  0
 13 37  1  0  0  0  0
 14 15  1  0  0  0  0
 14 29  1  0  0  0  0
 15 16  1  0  0  0  0
 15 17  1  0  0  0  0
 17 18  1  0  0  0  0
 17 22  1  0  0  0  0
 17 38  1  1  0  0  0
 18 19  1  0  0  0  0
 18 20  1  0  0  0  0
 18 21  1  0  0  0  0
 22 23  1  0  0  0  0
 22 39  1  0  0  0  0
 22 40  1  0  0  0  0
 23 29  1  0  0  0  0
 23 24  1  0  0  0  0
 23 41  1  1  0  0  0
 24 25  2  0  0  0  0
 24 28  1  0  0  0  0
 25 26  1  0  0  0  0
 25 42  1  0  0  0  0
 26 27  2  0  0  0  0
 26 43  1  0  0  0  0
 27 28  1  0  0  0  0
 27 44  1  0  0  0  0
 29 45  1  0  0  0  0
M  END
$$$$
