
 OpenBabel01112423133D

 51 55  0  0  1  0  0  0  0  0999 V2000
    1.4460   -0.0310    0.1085 C   0  0  0  0  0  0  0  0  0  0  0  0
    2.8846   -0.1334    0.1154 N   0  0  0  0  0  0  0  0  0  0  0  0
    3.6308    0.9679    0.1541 N   0  0  0  0  0  0  0  0  0  0  0  0
    4.9009    0.5602    0.0565 C   0  0  0  0  0  0  0  0  0  0  0  0
    5.9876    1.4255    0.1199 N   0  0  0  0  0  0  0  0  0  0  0  0
    5.8543    2.8049    0.2202 C   0  0  0  0  0  0  0  0  0  0  0  0
    4.8098    3.4513    0.1401 O   0  0  0  0  0  0  0  0  0  0  0  0
    7.1012    3.5954    0.4295 C   0  0  0  0  0  0  0  0  0  0  0  0
    7.1733    4.8779   -0.1269 C   0  0  0  0  0  0  0  0  0  0  0  0
    8.2615    5.7195    0.1466 C   0  0  0  0  0  0  0  0  0  0  0  0
    9.3071    5.3146    0.9961 C   0  0  0  0  0  0  0  0  0  0  0  0
   10.4242    6.2302    1.3535 C   0  0  0  0  0  0  0  0  0  0  0  0
   10.2328    7.6195    1.4728 C   0  0  0  0  0  0  0  0  0  0  0  0
   11.2726    8.4780    1.8550 C   0  0  0  0  0  0  0  0  0  0  0  0
   12.5330    7.9642    2.1361 C   0  0  0  0  0  0  0  0  0  0  0  0
   12.7569    6.5962    2.0204 C   0  0  0  0  0  0  0  0  0  0  0  0
   11.7172    5.7440    1.6269 C   0  0  0  0  0  0  0  0  0  0  0  0
    9.2171    4.0161    1.5356 C   0  0  0  0  0  0  0  0  0  0  0  0
    8.1299    3.1633    1.2615 C   0  0  0  0  0  0  0  0  0  0  0  0
    4.9404   -0.8677   -0.0791 C   0  0  0  0  0  0  0  0  0  0  0  0
    3.6360   -1.2629    0.0803 C   0  0  0  0  0  0  0  0  0  0  0  0
    3.2700   -2.5764    0.2270 N   0  0  0  0  0  0  0  0  0  0  0  0
    4.2751   -3.5866    0.1903 C   0  0  0  0  0  0  0  0  0  0  0  0
    3.9532   -4.6845    0.6109 O   0  0  0  0  0  0  0  0  0  0  0  0
    5.5714   -3.2737   -0.5118 C   0  0  0  0  0  0  0  0  0  0  0  0
    6.0630   -1.8311   -0.2841 C   0  0  1  0  0  0  0  0  0  0  0  0
    6.8936   -1.3758   -1.4647 C   0  0  0  0  0  0  0  0  0  0  0  0
    6.5038   -1.2504   -2.7892 C   0  0  0  0  0  0  0  0  0  0  0  0
    7.4580   -0.5345   -3.5640 C   0  0  0  0  0  0  0  0  0  0  0  0
    8.5701   -0.2027   -2.8230 C   0  0  0  0  0  0  0  0  0  0  0  0
    8.4930   -0.8131   -1.2291 S   0  0  0  0  0  0  0  0  0  0  0  0
    1.1514    1.0216    0.1222 H   0  0  0  0  0  0  0  0  0  0  0  0
    1.0588   -0.5434    0.9917 H   0  0  0  0  0  0  0  0  0  0  0  0
    1.0751   -0.5059   -0.8042 H   0  0  0  0  0  0  0  0  0  0  0  0
    6.9100    1.0271    0.0542 H   0  0  0  0  0  0  0  0  0  0  0  0
    6.3602    5.2462   -0.7528 H   0  0  0  0  0  0  0  0  0  0  0  0
    8.2612    6.7111   -0.3032 H   0  0  0  0  0  0  0  0  0  0  0  0
    9.2564    8.0631    1.2922 H   0  0  0  0  0  0  0  0  0  0  0  0
   11.0898    9.5423    1.9448 H   0  0  0  0  0  0  0  0  0  0  0  0
   13.3389    8.6255    2.4434 H   0  0  0  0  0  0  0  0  0  0  0  0
   13.7391    6.1867    2.2408 H   0  0  0  0  0  0  0  0  0  0  0  0
   11.9402    4.6834    1.5374 H   0  0  0  0  0  0  0  0  0  0  0  0
    9.9782    3.6653    2.2308 H   0  0  0  0  0  0  0  0  0  0  0  0
    8.0823    2.2057    1.7743 H   0  0  0  0  0  0  0  0  0  0  0  0
    2.3333   -2.8480    0.5012 H   0  0  0  0  0  0  0  0  0  0  0  0
    5.3779   -3.4817   -1.5730 H   0  0  0  0  0  0  0  0  0  0  0  0
    6.3340   -3.9862   -0.1822 H   0  0  0  0  0  0  0  0  0  0  0  0
    6.6679   -1.8298    0.6333 H   0  0  0  0  0  0  0  0  0  0  0  0
    5.5411   -1.5676   -3.1744 H   0  0  0  0  0  0  0  0  0  0  0  0
    7.3222   -0.2479   -4.5980 H   0  0  0  0  0  0  0  0  0  0  0  0
    9.4329    0.3677   -3.1469 H   0  0  0  0  0  0  0  0  0  0  0  0
  1  2  1  0  0  0  0
  1 32  1  0  0  0  0
  1 33  1  0  0  0  0
  1 34  1  0  0  0  0
  2  3  1  0  0  0  0
  2 21  1  0  0  0  0
  3  4  2  0  0  0  0
  4  5  1  0  0  0  0
  4 20  1  0  0  0  0
  5  6  1  0  0  0  0
  5 35  1  0  0  0  0
  6  7  2  0  0  0  0
  6  8  1  0  0  0  0
  8  9  1  0  0  0  0
  8 19  2  0  0  0  0
  9 10  2  0  0  0  0
  9 36  1  0  0  0  0
 10 11  1  0  0  0  0
 10 37  1  0  0  0  0
 11 12  1  0  0  0  0
 11 18  2  0  0  0  0
 12 13  1  0  0  0  0
 12 17  2  0  0  0  0
 13 14  2  0  0  0  0
 13 38  1  0  0  0  0
 14 15  1  0  0  0  0
 14 39  1  0  0  0  0
 15 16  2  0  0  0  0
 15 40  1  0  0  0  0
 16 17  1  0  0  0  0
 16 41  1  0  0  0  0
 17 42  1  0  0  0  0
 18 19  1  0  0  0  0
 18 43  1  0  0  0  0
 19 44  1  0  0  0  0
 20 21  2  0  0  0  0
 20 26  1  0  0  0  0
 21 22  1  0  0  0  0
 22 23  1  0  0  0  0
 22 45  1  0  0  0  0
 23 24  2  0  0  0  0
 23 25  1  0  0  0  0
 25 26  1  0  0  0  0
 25 46  1  0  0  0  0
 25 47  1  0  0  0  0
 26 27  1  0  0  0  0
 26 48  1  1  0  0  0
 27 28  2  0  0  0  0
 27 31  1  0  0  0  0
 28 29  1  0  0  0  0
 28 49  1  0  0  0  0
 29 30  2  0  0  0  0
 29 50  1  0  0  0  0
 30 31  1  0  0  0  0
 30 51  1  0  0  0  0
M  END
$$$$
