
 OpenBabel01112423063D

 41 44  0  0  0  0  0  0  0  0999 V2000
   -3.1107   -3.7296   -5.4464 C   0  0  0  0  0  0  0  0  0  0  0  0
   -2.9365   -2.2616   -5.1765 C   0  0  0  0  0  0  0  0  0  0  0  0
   -2.7942   -1.3622   -6.2474 C   0  0  0  0  0  0  0  0  0  0  0  0
   -2.5976   -0.0009   -6.0270 C   0  0  0  0  0  0  0  0  0  0  0  0
   -2.5352    0.5184   -4.7327 C   0  0  0  0  0  0  0  0  0  0  0  0
   -2.6728   -0.3726   -3.6610 C   0  0  0  0  0  0  0  0  0  0  0  0
   -2.6218   -0.0519   -1.9668 S   0  0  0  0  0  0  0  0  0  0  0  0
   -2.7573   -1.7233   -1.6449 C   0  0  0  0  0  0  0  0  0  0  0  0
   -2.6153   -2.2405   -0.4048 N   0  0  0  0  0  0  0  0  0  0  0  0
   -2.4681   -3.6157   -0.1915 C   0  0  0  0  0  0  0  0  0  0  0  0
   -2.7972   -4.4491   -1.1930 N   0  3  0  0  0  0  0  0  0  0  0  0
   -2.5912   -5.7515   -1.1032 C   0  0  0  0  0  0  0  0  0  0  0  0
   -2.0489   -6.3436   -0.0365 N   0  0  0  0  0  0  0  0  0  0  0  0
   -1.7004   -5.5466    0.9981 C   0  0  0  0  0  0  0  0  0  0  0  0
   -1.1057   -6.1341    2.1383 N   0  0  0  0  0  0  0  0  0  0  0  0
   -0.5822   -7.4414    2.1311 C   0  0  0  0  0  0  0  0  0  0  0  0
    0.3183   -7.8318    1.1353 C   0  0  0  0  0  0  0  0  0  0  0  0
    0.7730   -9.1441    1.0994 C   0  0  0  0  0  0  0  0  0  0  0  0
    0.3345  -10.0291    2.0715 C   0  0  0  0  0  0  0  0  0  0  0  0
   -0.5250   -9.5517    3.0487 C   0  0  0  0  0  0  0  0  0  0  0  0
   -0.9842   -8.2774    3.1026 N   0  0  0  0  0  0  0  0  0  0  0  0
   -1.8504   -4.1450    0.9562 C   0  0  0  0  0  0  0  0  0  0  0  0
   -1.5268   -3.3377    2.0717 N   0  0  0  0  0  0  0  0  0  0  0  0
   -2.9520   -2.4930   -2.6975 N   0  0  0  0  0  0  0  0  0  0  0  0
   -2.8691   -1.7395   -3.8616 C   0  0  0  0  0  0  0  0  0  0  0  0
   -3.2019   -3.9415   -6.5161 H   0  0  0  0  0  0  0  0  0  0  0  0
   -4.0136   -4.1004   -4.9496 H   0  0  0  0  0  0  0  0  0  0  0  0
   -2.2462   -4.2821   -5.0624 H   0  0  0  0  0  0  0  0  0  0  0  0
   -2.8300   -1.7258   -7.2744 H   0  0  0  0  0  0  0  0  0  0  0  0
   -2.4825    0.6695   -6.8795 H   0  0  0  0  0  0  0  0  0  0  0  0
   -2.3681    1.5791   -4.5673 H   0  0  0  0  0  0  0  0  0  0  0  0
   -2.5245   -1.6383    0.4052 H   0  0  0  0  0  0  0  0  0  0  0  0
   -3.1641   -4.0324   -2.0525 H   0  0  0  0  0  0  0  0  0  0  0  0
   -2.8493   -6.3678   -1.9562 H   0  0  0  0  0  0  0  0  0  0  0  0
   -1.7290   -6.0747    2.9421 H   0  0  0  0  0  0  0  0  0  0  0  0
    0.6530   -7.1243    0.3850 H   0  0  0  0  0  0  0  0  0  0  0  0
    1.4542   -9.4675    0.3183 H   0  0  0  0  0  0  0  0  0  0  0  0
    0.6591  -11.0639    2.0709 H   0  0  0  0  0  0  0  0  0  0  0  0
   -0.8833  -10.2083    3.8373 H   0  0  0  0  0  0  0  0  0  0  0  0
   -0.8880   -3.8200    2.7128 H   0  0  0  0  0  0  0  0  0  0  0  0
   -1.1648   -2.4108    1.8632 H   0  0  0  0  0  0  0  0  0  0  0  0
  1  2  1  0  0  0  0
  1 26  1  0  0  0  0
  1 27  1  0  0  0  0
  1 28  1  0  0  0  0
  2  3  1  0  0  0  0
  2 25  2  0  0  0  0
  3  4  2  0  0  0  0
  3 29  1  0  0  0  0
  4  5  1  0  0  0  0
  4 30  1  0  0  0  0
  5  6  2  0  0  0  0
  5 31  1  0  0  0  0
  6  7  1  0  0  0  0
  6 25  1  0  0  0  0
  7  8  1  0  0  0  0
  8  9  1  0  0  0  0
  8 24  2  0  0  0  0
  9 10  1  0  0  0  0
  9 32  1  0  0  0  0
 10 11  1  0  0  0  0
 10 22  2  0  0  0  0
 11 12  2  0  0  0  0
 11 33  1  0  0  0  0
 12 13  1  0  0  0  0
 12 34  1  0  0  0  0
 13 14  2  0  0  0  0
 14 15  1  0  0  0  0
 14 22  1  0  0  0  0
 15 16  1  0  0  0  0
 15 35  1  0  0  0  0
 16 17  1  0  0  0  0
 16 21  2  0  0  0  0
 17 18  2  0  0  0  0
 17 36  1  0  0  0  0
 18 19  1  0  0  0  0
 18 37  1  0  0  0  0
 19 20  2  0  0  0  0
 19 38  1  0  0  0  0
 20 21  1  0  0  0  0
 20 39  1  0  0  0  0
 22 23  1  0  0  0  0
 23 40  1  0  0  0  0
 23 41  1  0  0  0  0
 24 25  1  0  0  0  0
M  CHG  1  11   1
M  END
$$$$
