
 OpenBabel01112423043D

 45 47  0  0  0  0  0  0  0  0999 V2000
    2.0604   -1.7003   -2.4033 C   0  0  0  0  0  0  0  0  0  0  0  0
    1.1597   -0.7089   -1.7476 C   0  0  0  0  0  0  0  0  0  0  0  0
   -0.2218   -0.8739   -1.6553 C   0  0  0  0  0  0  0  0  0  0  0  0
   -0.9776    0.0788   -0.9764 C   0  0  0  0  0  0  0  0  0  0  0  0
   -0.3449    1.1740   -0.3896 C   0  0  0  0  0  0  0  0  0  0  0  0
    1.0361    1.3170   -0.5149 C   0  0  0  0  0  0  0  0  0  0  0  0
    1.7483    2.2921    0.1785 N   0  0  0  0  0  0  0  0  0  0  0  0
    3.1501    2.4762    0.1164 C   0  0  0  0  0  0  0  0  0  0  0  0
    3.8319    1.8367   -0.8650 N   0  0  0  0  0  0  0  0  0  0  0  0
    5.1647    2.0210   -0.8498 C   0  0  0  0  0  0  0  0  0  0  0  0
    5.8634    2.6431    0.1006 N   0  0  0  0  0  0  0  0  0  0  0  0
    5.1689    3.1938    1.1082 C   0  0  0  0  0  0  0  0  0  0  0  0
    5.8459    3.7518    2.2175 N   0  0  0  0  0  0  0  0  0  0  0  0
    7.1830    3.1901    2.4756 C   0  0  0  0  0  0  0  0  0  0  0  0
    7.0431    1.7255    2.9449 C   0  0  0  0  0  0  0  0  0  0  0  0
    8.3643    1.1280    3.4120 C   0  0  0  0  0  0  0  0  0  0  0  0
    9.0026    1.9813    4.5003 C   0  0  0  0  0  0  0  0  0  0  0  0
    9.1839    3.4205    4.0315 C   0  0  0  0  0  0  0  0  0  0  0  0
    7.8627    4.0327    3.5678 C   0  0  0  0  0  0  0  0  0  0  0  0
    3.7719    3.1742    1.1512 C   0  0  0  0  0  0  0  0  0  0  0  0
    3.0471    3.8800    2.1423 N   0  0  0  0  0  0  0  0  0  0  0  0
    1.7164    0.3734   -1.1843 N   0  3  0  0  0  0  0  0  0  0  0  0
    1.4929   -2.5185   -2.8616 H   0  0  0  0  0  0  0  0  0  0  0  0
    2.7405   -2.1315   -1.6620 H   0  0  0  0  0  0  0  0  0  0  0  0
    2.6495   -1.2139   -3.1836 H   0  0  0  0  0  0  0  0  0  0  0  0
   -0.7114   -1.7421   -2.0930 H   0  0  0  0  0  0  0  0  0  0  0  0
   -2.0563   -0.0437   -0.8844 H   0  0  0  0  0  0  0  0  0  0  0  0
   -0.9302    1.8925    0.1786 H   0  0  0  0  0  0  0  0  0  0  0  0
    1.2806    3.1872    0.3109 H   0  0  0  0  0  0  0  0  0  0  0  0
    5.7345    1.6149   -1.6803 H   0  0  0  0  0  0  0  0  0  0  0  0
    5.8546    4.7635    2.0976 H   0  0  0  0  0  0  0  0  0  0  0  0
    7.8105    3.2392    1.5754 H   0  0  0  0  0  0  0  0  0  0  0  0
    6.6454    1.0955    2.1408 H   0  0  0  0  0  0  0  0  0  0  0  0
    6.3132    1.6695    3.7639 H   0  0  0  0  0  0  0  0  0  0  0  0
    9.0503    1.0439    2.5595 H   0  0  0  0  0  0  0  0  0  0  0  0
    8.1965    0.1135    3.7885 H   0  0  0  0  0  0  0  0  0  0  0  0
    9.9718    1.5557    4.7828 H   0  0  0  0  0  0  0  0  0  0  0  0
    8.3708    1.9631    5.3969 H   0  0  0  0  0  0  0  0  0  0  0  0
    9.9082    3.4473    3.2081 H   0  0  0  0  0  0  0  0  0  0  0  0
    9.6027    4.0217    4.8461 H   0  0  0  0  0  0  0  0  0  0  0  0
    8.0447    5.0476    3.1934 H   0  0  0  0  0  0  0  0  0  0  0  0
    7.1920    4.1372    4.4311 H   0  0  0  0  0  0  0  0  0  0  0  0
    3.6855    4.1028    2.9145 H   0  0  0  0  0  0  0  0  0  0  0  0
    2.2413    3.3663    2.4857 H   0  0  0  0  0  0  0  0  0  0  0  0
    2.7289    0.5254   -1.2328 H   0  0  0  0  0  0  0  0  0  0  0  0
  1  2  1  0  0  0  0
  1 23  1  0  0  0  0
  1 24  1  0  0  0  0
  1 25  1  0  0  0  0
  2  3  1  0  0  0  0
  2 22  2  0  0  0  0
  3  4  2  0  0  0  0
  3 26  1  0  0  0  0
  4  5  1  0  0  0  0
  4 27  1  0  0  0  0
  5  6  2  0  0  0  0
  5 28  1  0  0  0  0
  6  7  1  0  0  0  0
  6 22  1  0  0  0  0
  7  8  1  0  0  0  0
  7 29  1  0  0  0  0
  8  9  1  0  0  0  0
  8 20  2  0  0  0  0
  9 10  2  0  0  0  0
 10 11  1  0  0  0  0
 10 30  1  0  0  0  0
 11 12  2  0  0  0  0
 12 13  1  0  0  0  0
 12 20  1  0  0  0  0
 13 14  1  0  0  0  0
 13 31  1  0  0  0  0
 14 15  1  0  0  0  0
 14 19  1  0  0  0  0
 14 32  1  0  0  0  0
 15 16  1  0  0  0  0
 15 33  1  0  0  0  0
 15 34  1  0  0  0  0
 16 17  1  0  0  0  0
 16 35  1  0  0  0  0
 16 36  1  0  0  0  0
 17 18  1  0  0  0  0
 17 37  1  0  0  0  0
 17 38  1  0  0  0  0
 18 19  1  0  0  0  0
 18 39  1  0  0  0  0
 18 40  1  0  0  0  0
 19 41  1  0  0  0  0
 19 42  1  0  0  0  0
 20 21  1  0  0  0  0
 21 43  1  0  0  0  0
 21 44  1  0  0  0  0
 22 45  1  0  0  0  0
M  CHG  1  22   1
M  END
$$$$
