
 OpenBabel01112423103D

 52 56  0  0  0  0  0  0  0  0999 V2000
    4.0867    3.1353   -0.5118 C   0  0  0  0  0  0  0  0  0  0  0  0
    5.0090    1.9993   -0.8536 C   0  0  0  0  0  0  0  0  0  0  0  0
    5.9292    2.1312   -1.9034 C   0  0  0  0  0  0  0  0  0  0  0  0
    6.7707    1.0708   -2.2649 C   0  0  0  0  0  0  0  0  0  0  0  0
    7.8151    1.2790   -3.3256 C   0  0  0  0  0  0  0  0  0  0  0  0
    6.6677   -0.1351   -1.5551 C   0  0  0  0  0  0  0  0  0  0  0  0
    7.3889   -1.2640   -1.9624 N   0  0  0  0  0  0  0  0  0  0  0  0
    7.3661   -2.4546   -1.2835 C   0  0  0  0  0  0  0  0  0  0  0  0
    7.7813   -3.4811   -1.8112 O   0  0  0  0  0  0  0  0  0  0  0  0
    6.9048   -2.3887    0.1448 C   0  0  0  0  0  0  0  0  0  0  0  0
    7.7430   -3.0143    1.1716 C   0  0  0  0  0  0  0  0  0  0  0  0
    8.0935   -2.0788    2.1535 N   0  0  0  0  0  0  0  0  0  0  0  0
    9.3367   -1.7516    1.8416 C   0  0  0  0  0  0  0  0  0  0  0  0
   10.1159   -0.6056    2.1481 C   0  0  0  0  0  0  0  0  0  0  0  0
   11.2688   -0.3940    1.4862 C   0  0  0  0  0  0  0  0  0  0  0  0
   11.7419   -1.3113    0.4601 C   0  0  0  0  0  0  0  0  0  0  0  0
   11.0387   -2.4295    0.1789 C   0  0  0  0  0  0  0  0  0  0  0  0
   11.3943   -3.3233   -0.9742 C   0  0  0  0  0  0  0  0  0  0  0  0
    9.8606   -2.6585    0.9162 N   0  0  0  0  0  0  0  0  0  0  0  0
    8.9351   -3.7018    0.8961 C   0  0  0  0  0  0  0  0  0  0  0  0
    9.3368   -5.0061    0.8435 N   0  0  0  0  0  0  0  0  0  0  0  0
    8.5125   -6.0697    0.2910 C   0  0  0  0  0  0  0  0  0  0  0  0
    9.0744   -7.4415    0.5380 C   0  0  0  0  0  0  0  0  0  0  0  0
    9.2912   -8.1934    1.6778 C   0  0  0  0  0  0  0  0  0  0  0  0
    9.8247   -9.4352    1.2508 C   0  0  0  0  0  0  0  0  0  0  0  0
    9.9221   -9.3565   -0.1180 C   0  0  0  0  0  0  0  0  0  0  0  0
    9.4786   -8.1512   -0.5586 O   0  0  0  0  0  0  0  0  0  0  0  0
    6.0226   -1.4078    0.4617 C   0  0  0  0  0  0  0  0  0  0  0  0
    5.8251   -0.2572   -0.4398 C   0  0  0  0  0  0  0  0  0  0  0  0
    4.9802    0.8083   -0.1072 C   0  0  0  0  0  0  0  0  0  0  0  0
    4.2527    3.9981   -1.1673 H   0  0  0  0  0  0  0  0  0  0  0  0
    4.2493    3.4647    0.5187 H   0  0  0  0  0  0  0  0  0  0  0  0
    3.0452    2.8224   -0.6350 H   0  0  0  0  0  0  0  0  0  0  0  0
    5.9963    3.0761   -2.4410 H   0  0  0  0  0  0  0  0  0  0  0  0
    7.7526    2.2800   -3.7649 H   0  0  0  0  0  0  0  0  0  0  0  0
    7.6998    0.5525   -4.1344 H   0  0  0  0  0  0  0  0  0  0  0  0
    8.8143    1.1784   -2.8852 H   0  0  0  0  0  0  0  0  0  0  0  0
    7.8339   -1.2862   -2.8682 H   0  0  0  0  0  0  0  0  0  0  0  0
    9.7315    0.1032    2.8712 H   0  0  0  0  0  0  0  0  0  0  0  0
   11.8541    0.5012    1.6710 H   0  0  0  0  0  0  0  0  0  0  0  0
   12.6311   -1.0362   -0.0981 H   0  0  0  0  0  0  0  0  0  0  0  0
   12.3579   -3.0415   -1.4164 H   0  0  0  0  0  0  0  0  0  0  0  0
   10.6410   -3.2350   -1.7658 H   0  0  0  0  0  0  0  0  0  0  0  0
   11.4779   -4.3702   -0.6843 H   0  0  0  0  0  0  0  0  0  0  0  0
   10.3286   -5.2194    0.7804 H   0  0  0  0  0  0  0  0  0  0  0  0
    8.4307   -5.9198   -0.7907 H   0  0  0  0  0  0  0  0  0  0  0  0
    7.5016   -6.0321    0.7117 H   0  0  0  0  0  0  0  0  0  0  0  0
    9.0780   -7.8837    2.6918 H   0  0  0  0  0  0  0  0  0  0  0  0
   10.1002  -10.2847    1.8611 H   0  0  0  0  0  0  0  0  0  0  0  0
   10.2626  -10.0383   -0.8842 H   0  0  0  0  0  0  0  0  0  0  0  0
    5.7284   -1.2575    1.4995 H   0  0  0  0  0  0  0  0  0  0  0  0
    4.3171    0.7326    0.7521 H   0  0  0  0  0  0  0  0  0  0  0  0
  1  2  1  0  0  0  0
  1 31  1  0  0  0  0
  1 32  1  0  0  0  0
  1 33  1  0  0  0  0
  2  3  1  0  0  0  0
  2 30  2  0  0  0  0
  3  4  2  0  0  0  0
  3 34  1  0  0  0  0
  4  5  1  0  0  0  0
  4  6  1  0  0  0  0
  5 35  1  0  0  0  0
  5 36  1  0  0  0  0
  5 37  1  0  0  0  0
  6  7  1  0  0  0  0
  6 29  2  0  0  0  0
  7  8  1  0  0  0  0
  7 38  1  0  0  0  0
  8  9  2  0  0  0  0
  8 10  1  0  0  0  0
 10 11  1  0  0  0  0
 10 28  2  0  0  0  0
 11 12  1  0  0  0  0
 11 20  2  0  0  0  0
 12 13  2  0  0  0  0
 13 14  1  0  0  0  0
 13 19  1  0  0  0  0
 14 15  2  0  0  0  0
 14 39  1  0  0  0  0
 15 16  1  0  0  0  0
 15 40  1  0  0  0  0
 16 17  2  0  0  0  0
 16 41  1  0  0  0  0
 17 18  1  0  0  0  0
 17 19  1  0  0  0  0
 18 42  1  0  0  0  0
 18 43  1  0  0  0  0
 18 44  1  0  0  0  0
 19 20  1  0  0  0  0
 20 21  1  0  0  0  0
 21 22  1  0  0  0  0
 21 45  1  0  0  0  0
 22 23  1  0  0  0  0
 22 46  1  0  0  0  0
 22 47  1  0  0  0  0
 23 24  2  0  0  0  0
 23 27  1  0  0  0  0
 24 25  1  0  0  0  0
 24 48  1  0  0  0  0
 25 26  2  0  0  0  0
 25 49  1  0  0  0  0
 26 27  1  0  0  0  0
 26 50  1  0  0  0  0
 28 29  1  0  0  0  0
 28 51  1  0  0  0  0
 29 30  1  0  0  0  0
 30 52  1  0  0  0  0
M  END
$$$$
